# generated using pymatgen
data_Mo300Pb46S375
_symmetry_space_group_name_H-M   'P 1'
_cell_length_a   32.75500000
_cell_length_b   32.75500000
_cell_length_c   26.20400000
_cell_angle_alpha   89.33000000
_cell_angle_beta   89.33000000
_cell_angle_gamma   89.33000000
_symmetry_Int_Tables_number   1
_chemical_formula_structural   Mo300Pb46S375
_chemical_formula_sum   'Mo600 Pb92 S750'
_cell_volume   28108.28826670
_cell_formula_units_Z   2
loop_
 _symmetry_equiv_pos_site_id
 _symmetry_equiv_pos_as_xyz
  1  'x, y, z'
loop_
 _atom_site_type_symbol
 _atom_site_label
 _atom_site_symmetry_multiplicity
 _atom_site_fract_x
 _atom_site_fract_y
 _atom_site_fract_z
 _atom_site_occupancy
  Mo  Mo0  1  0.08766000  0.15454000  0.14602500  1
  Mo  Mo1  1  0.11682000  0.08766000  0.19317500  1
  Mo  Mo2  1  0.15454000  0.11682000  0.10957500  1
  Mo  Mo3  1  0.11234000  0.04546000  0.10397500  1
  Mo  Mo4  1  0.08318000  0.11234000  0.05682500  1
  Mo  Mo5  1  0.04546000  0.08318000  0.14042500  1
  Pb  Pb6  1  0.00000000  0.00000000  0.00000000  1
  S  S7  1  0.05142000  0.12336000  0.21860000  1
  S  S8  1  0.17488000  0.05142000  0.15420000  1
  S  S9  1  0.12336000  0.17488000  0.06427500  1
  S  S10  1  0.14858000  0.07664000  0.03140000  1
  S  S11  1  0.02512000  0.14858000  0.09580000  1
  S  S12  1  0.07664000  0.02512000  0.18572500  1
  S  S13  1  0.04848000  0.04848000  0.06060000  1
  Mo  Mo14  1  0.08766000  0.15454000  0.39602500  1
  Mo  Mo15  1  0.11682000  0.08766000  0.44317500  1
  Mo  Mo16  1  0.15454000  0.11682000  0.35957500  1
  Mo  Mo17  1  0.11234000  0.04546000  0.35397500  1
  Mo  Mo18  1  0.08318000  0.11234000  0.30682500  1
  Mo  Mo19  1  0.04546000  0.08318000  0.39042500  1
  Pb  Pb20  1  0.00000000  0.00000000  0.25000000  1
  S  S21  1  0.05142000  0.12336000  0.46860000  1
  S  S22  1  0.17488000  0.05142000  0.40420000  1
  S  S23  1  0.12336000  0.17488000  0.31427500  1
  S  S24  1  0.14858000  0.07664000  0.28140000  1
  S  S25  1  0.02512000  0.14858000  0.34580000  1
  S  S26  1  0.07664000  0.02512000  0.43572500  1
  S  S27  1  0.15152000  0.15152000  0.43940000  1
  S  S28  1  0.04848000  0.04848000  0.31060000  1
  Mo  Mo29  1  0.08766000  0.15454000  0.64602500  1
  Mo  Mo30  1  0.11682000  0.08766000  0.69317500  1
  Mo  Mo31  1  0.15454000  0.11682000  0.60957500  1
  Mo  Mo32  1  0.11234000  0.04546000  0.60397500  1
  Mo  Mo33  1  0.08318000  0.11234000  0.55682500  1
  Mo  Mo34  1  0.04546000  0.08318000  0.64042500  1
  Pb  Pb35  1  0.00000000  0.00000000  0.50000000  1
  S  S36  1  0.05142000  0.12336000  0.71860000  1
  S  S37  1  0.17488000  0.05142000  0.65420000  1
  S  S38  1  0.12336000  0.17488000  0.56427500  1
  S  S39  1  0.14858000  0.07664000  0.53140000  1
  S  S40  1  0.02512000  0.14858000  0.59580000  1
  S  S41  1  0.07664000  0.02512000  0.68572500  1
  S  S42  1  0.15152000  0.15152000  0.68940000  1
  S  S43  1  0.04848000  0.04848000  0.56060000  1
  Mo  Mo44  1  0.08766000  0.15454000  0.89602500  1
  Mo  Mo45  1  0.11682000  0.08766000  0.94317500  1
  Mo  Mo46  1  0.15454000  0.11682000  0.85957500  1
  Mo  Mo47  1  0.11234000  0.04546000  0.85397500  1
  Mo  Mo48  1  0.08318000  0.11234000  0.80682500  1
  Mo  Mo49  1  0.04546000  0.08318000  0.89042500  1
  Pb  Pb50  1  0.00000000  0.00000000  0.75000000  1
  S  S51  1  0.05142000  0.12336000  0.96860000  1
  S  S52  1  0.17488000  0.05142000  0.90420000  1
  S  S53  1  0.12336000  0.17488000  0.81427500  1
  S  S54  1  0.14858000  0.07664000  0.78140000  1
  S  S55  1  0.02512000  0.14858000  0.84580000  1
  S  S56  1  0.07664000  0.02512000  0.93572500  1
  S  S57  1  0.15152000  0.15152000  0.93940000  1
  S  S58  1  0.04848000  0.04848000  0.81060000  1
  Mo  Mo59  1  0.08766000  0.35454000  0.14602500  1
  Mo  Mo60  1  0.11682000  0.28766000  0.19317500  1
  Mo  Mo61  1  0.15454000  0.31682000  0.10957500  1
  Mo  Mo62  1  0.11234000  0.24546000  0.10397500  1
  Mo  Mo63  1  0.08318000  0.31234000  0.05682500  1
  Mo  Mo64  1  0.04546000  0.28318000  0.14042500  1
  Pb  Pb65  1  0.00000000  0.20000000  0.00000000  1
  S  S66  1  0.05142000  0.32336000  0.21860000  1
  S  S67  1  0.17488000  0.25142000  0.15420000  1
  S  S68  1  0.12336000  0.37488000  0.06427500  1
  S  S69  1  0.14858000  0.27664000  0.03140000  1
  S  S70  1  0.02512000  0.34858000  0.09580000  1
  S  S71  1  0.07664000  0.22512000  0.18572500  1
  S  S72  1  0.04848000  0.24848000  0.06060000  1
  Mo  Mo73  1  0.08766000  0.35454000  0.39602500  1
  Mo  Mo74  1  0.11682000  0.28766000  0.44317500  1
  Mo  Mo75  1  0.15454000  0.31682000  0.35957500  1
  Mo  Mo76  1  0.11234000  0.24546000  0.35397500  1
  Mo  Mo77  1  0.08318000  0.31234000  0.30682500  1
  Mo  Mo78  1  0.04546000  0.28318000  0.39042500  1
  Pb  Pb79  1  0.00000000  0.20000000  0.25000000  1
  S  S80  1  0.05142000  0.32336000  0.46860000  1
  S  S81  1  0.17488000  0.25142000  0.40420000  1
  S  S82  1  0.12336000  0.37488000  0.31427500  1
  S  S83  1  0.14858000  0.27664000  0.28140000  1
  S  S84  1  0.02512000  0.34858000  0.34580000  1
  S  S85  1  0.07664000  0.22512000  0.43572500  1
  S  S86  1  0.15152000  0.35152000  0.43940000  1
  S  S87  1  0.04848000  0.24848000  0.31060000  1
  Mo  Mo88  1  0.08766000  0.35454000  0.64602500  1
  Mo  Mo89  1  0.11682000  0.28766000  0.69317500  1
  Mo  Mo90  1  0.15454000  0.31682000  0.60957500  1
  Mo  Mo91  1  0.11234000  0.24546000  0.60397500  1
  Mo  Mo92  1  0.08318000  0.31234000  0.55682500  1
  Mo  Mo93  1  0.04546000  0.28318000  0.64042500  1
  Pb  Pb94  1  0.00000000  0.20000000  0.50000000  1
  S  S95  1  0.05142000  0.32336000  0.71860000  1
  S  S96  1  0.17488000  0.25142000  0.65420000  1
  S  S97  1  0.12336000  0.37488000  0.56427500  1
  S  S98  1  0.14858000  0.27664000  0.53140000  1
  S  S99  1  0.02512000  0.34858000  0.59580000  1
  S  S100  1  0.07664000  0.22512000  0.68572500  1
  S  S101  1  0.15152000  0.35152000  0.68940000  1
  S  S102  1  0.04848000  0.24848000  0.56060000  1
  Mo  Mo103  1  0.08766000  0.35454000  0.89602500  1
  Mo  Mo104  1  0.11682000  0.28766000  0.94317500  1
  Mo  Mo105  1  0.15454000  0.31682000  0.85957500  1
  Mo  Mo106  1  0.11234000  0.24546000  0.85397500  1
  Mo  Mo107  1  0.08318000  0.31234000  0.80682500  1
  Mo  Mo108  1  0.04546000  0.28318000  0.89042500  1
  Pb  Pb109  1  0.00000000  0.20000000  0.75000000  1
  S  S110  1  0.05142000  0.32336000  0.96860000  1
  S  S111  1  0.17488000  0.25142000  0.90420000  1
  S  S112  1  0.12336000  0.37488000  0.81427500  1
  S  S113  1  0.14858000  0.27664000  0.78140000  1
  S  S114  1  0.02512000  0.34858000  0.84580000  1
  S  S115  1  0.07664000  0.22512000  0.93572500  1
  Mo  Mo116  1  0.08766000  0.55454000  0.14602500  1
  Mo  Mo117  1  0.11682000  0.48766000  0.19317500  1
  Mo  Mo118  1  0.15454000  0.51682000  0.10957500  1
  Mo  Mo119  1  0.11234000  0.44546000  0.10397500  1
  Mo  Mo120  1  0.08318000  0.51234000  0.05682500  1
  Mo  Mo121  1  0.04546000  0.48318000  0.14042500  1
  Pb  Pb122  1  0.00000000  0.40000000  0.00000000  1
  S  S123  1  0.05142000  0.52336000  0.21860000  1
  S  S124  1  0.17488000  0.45142000  0.15420000  1
  S  S125  1  0.12336000  0.57488000  0.06427500  1
  S  S126  1  0.14858000  0.47664000  0.03140000  1
  S  S127  1  0.02512000  0.54858000  0.09580000  1
  S  S128  1  0.07664000  0.42512000  0.18572500  1
  S  S129  1  0.15152000  0.55152000  0.18940000  1
  S  S130  1  0.04848000  0.44848000  0.06060000  1
  Mo  Mo131  1  0.08766000  0.55454000  0.39602500  1
  Mo  Mo132  1  0.11682000  0.48766000  0.44317500  1
  Mo  Mo133  1  0.15454000  0.51682000  0.35957500  1
  Mo  Mo134  1  0.11234000  0.44546000  0.35397500  1
  Mo  Mo135  1  0.08318000  0.51234000  0.30682500  1
  Mo  Mo136  1  0.04546000  0.48318000  0.39042500  1
  Pb  Pb137  1  0.00000000  0.40000000  0.25000000  1
  S  S138  1  0.05142000  0.52336000  0.46860000  1
  S  S139  1  0.17488000  0.45142000  0.40420000  1
  S  S140  1  0.12336000  0.57488000  0.31427500  1
  S  S141  1  0.14858000  0.47664000  0.28140000  1
  S  S142  1  0.02512000  0.54858000  0.34580000  1
  S  S143  1  0.07664000  0.42512000  0.43572500  1
  S  S144  1  0.15152000  0.55152000  0.43940000  1
  Mo  Mo145  1  0.08766000  0.55454000  0.64602500  1
  Mo  Mo146  1  0.11682000  0.48766000  0.69317500  1
  Mo  Mo147  1  0.15454000  0.51682000  0.60957500  1
  Mo  Mo148  1  0.11234000  0.44546000  0.60397500  1
  Mo  Mo149  1  0.08318000  0.51234000  0.55682500  1
  Mo  Mo150  1  0.04546000  0.48318000  0.64042500  1
  S  S151  1  0.05142000  0.52336000  0.71860000  1
  S  S152  1  0.17488000  0.45142000  0.65420000  1
  S  S153  1  0.12336000  0.57488000  0.56427500  1
  S  S154  1  0.14858000  0.47664000  0.53140000  1
  S  S155  1  0.02512000  0.54858000  0.59580000  1
  S  S156  1  0.07664000  0.42512000  0.68572500  1
  S  S157  1  0.15152000  0.55152000  0.68940000  1
  Mo  Mo158  1  0.08766000  0.55454000  0.89602500  1
  Mo  Mo159  1  0.11682000  0.48766000  0.94317500  1
  Mo  Mo160  1  0.15454000  0.51682000  0.85957500  1
  Mo  Mo161  1  0.11234000  0.44546000  0.85397500  1
  Mo  Mo162  1  0.08318000  0.51234000  0.80682500  1
  Mo  Mo163  1  0.04546000  0.48318000  0.89042500  1
  Pb  Pb164  1  0.00000000  0.40000000  0.75000000  1
  S  S165  1  0.05142000  0.52336000  0.96860000  1
  S  S166  1  0.17488000  0.45142000  0.90420000  1
  S  S167  1  0.12336000  0.57488000  0.81427500  1
  S  S168  1  0.14858000  0.47664000  0.78140000  1
  S  S169  1  0.02512000  0.54858000  0.84580000  1
  S  S170  1  0.07664000  0.42512000  0.93572500  1
  S  S171  1  0.15152000  0.55152000  0.93940000  1
  S  S172  1  0.04848000  0.44848000  0.81060000  1
  Mo  Mo173  1  0.08766000  0.75454000  0.14602500  1
  Mo  Mo174  1  0.11682000  0.68766000  0.19317500  1
  Mo  Mo175  1  0.15454000  0.71682000  0.10957500  1
  Mo  Mo176  1  0.11234000  0.64546000  0.10397500  1
  Mo  Mo177  1  0.08318000  0.71234000  0.05682500  1
  Mo  Mo178  1  0.04546000  0.68318000  0.14042500  1
  Pb  Pb179  1  0.00000000  0.60000000  0.00000000  1
  S  S180  1  0.05142000  0.72336000  0.21860000  1
  S  S181  1  0.17488000  0.65142000  0.15420000  1
  S  S182  1  0.12336000  0.77488000  0.06427500  1
  S  S183  1  0.14858000  0.67664000  0.03140000  1
  S  S184  1  0.02512000  0.74858000  0.09580000  1
  S  S185  1  0.07664000  0.62512000  0.18572500  1
  S  S186  1  0.15152000  0.75152000  0.18940000  1
  S  S187  1  0.04848000  0.64848000  0.06060000  1
  Mo  Mo188  1  0.08766000  0.75454000  0.39602500  1
  Mo  Mo189  1  0.11682000  0.68766000  0.44317500  1
  Mo  Mo190  1  0.15454000  0.71682000  0.35957500  1
  Mo  Mo191  1  0.11234000  0.64546000  0.35397500  1
  Mo  Mo192  1  0.08318000  0.71234000  0.30682500  1
  Mo  Mo193  1  0.04546000  0.68318000  0.39042500  1
  Pb  Pb194  1  0.00000000  0.60000000  0.25000000  1
  S  S195  1  0.05142000  0.72336000  0.46860000  1
  S  S196  1  0.17488000  0.65142000  0.40420000  1
  S  S197  1  0.12336000  0.77488000  0.31427500  1
  S  S198  1  0.14858000  0.67664000  0.28140000  1
  S  S199  1  0.02512000  0.74858000  0.34580000  1
  S  S200  1  0.07664000  0.62512000  0.43572500  1
  S  S201  1  0.04848000  0.64848000  0.31060000  1
  Mo  Mo202  1  0.08766000  0.75454000  0.64602500  1
  Mo  Mo203  1  0.11682000  0.68766000  0.69317500  1
  Mo  Mo204  1  0.15454000  0.71682000  0.60957500  1
  Mo  Mo205  1  0.11234000  0.64546000  0.60397500  1
  Mo  Mo206  1  0.08318000  0.71234000  0.55682500  1
  Mo  Mo207  1  0.04546000  0.68318000  0.64042500  1
  Pb  Pb208  1  0.00000000  0.60000000  0.50000000  1
  S  S209  1  0.05142000  0.72336000  0.71860000  1
  S  S210  1  0.17488000  0.65142000  0.65420000  1
  S  S211  1  0.12336000  0.77488000  0.56427500  1
  S  S212  1  0.14858000  0.67664000  0.53140000  1
  S  S213  1  0.02512000  0.74858000  0.59580000  1
  S  S214  1  0.07664000  0.62512000  0.68572500  1
  S  S215  1  0.15152000  0.75152000  0.68940000  1
  Mo  Mo216  1  0.08766000  0.75454000  0.89602500  1
  Mo  Mo217  1  0.11682000  0.68766000  0.94317500  1
  Mo  Mo218  1  0.15454000  0.71682000  0.85957500  1
  Mo  Mo219  1  0.11234000  0.64546000  0.85397500  1
  Mo  Mo220  1  0.08318000  0.71234000  0.80682500  1
  Mo  Mo221  1  0.04546000  0.68318000  0.89042500  1
  Pb  Pb222  1  0.00000000  0.60000000  0.75000000  1
  S  S223  1  0.05142000  0.72336000  0.96860000  1
  S  S224  1  0.17488000  0.65142000  0.90420000  1
  S  S225  1  0.12336000  0.77488000  0.81427500  1
  S  S226  1  0.14858000  0.67664000  0.78140000  1
  S  S227  1  0.02512000  0.74858000  0.84580000  1
  S  S228  1  0.07664000  0.62512000  0.93572500  1
  S  S229  1  0.04848000  0.64848000  0.81060000  1
  Mo  Mo230  1  0.08766000  0.95454000  0.14602500  1
  Mo  Mo231  1  0.11682000  0.88766000  0.19317500  1
  Mo  Mo232  1  0.15454000  0.91682000  0.10957500  1
  Mo  Mo233  1  0.11234000  0.84546000  0.10397500  1
  Mo  Mo234  1  0.08318000  0.91234000  0.05682500  1
  Mo  Mo235  1  0.04546000  0.88318000  0.14042500  1
  Pb  Pb236  1  0.00000000  0.80000000  0.00000000  1
  S  S237  1  0.05142000  0.92336000  0.21860000  1
  S  S238  1  0.17488000  0.85142000  0.15420000  1
  S  S239  1  0.12336000  0.97488000  0.06427500  1
  S  S240  1  0.14858000  0.87664000  0.03140000  1
  S  S241  1  0.02512000  0.94858000  0.09580000  1
  S  S242  1  0.07664000  0.82512000  0.18572500  1
  S  S243  1  0.15152000  0.95152000  0.18940000  1
  S  S244  1  0.04848000  0.84848000  0.06060000  1
  Mo  Mo245  1  0.08766000  0.95454000  0.39602500  1
  Mo  Mo246  1  0.11682000  0.88766000  0.44317500  1
  Mo  Mo247  1  0.15454000  0.91682000  0.35957500  1
  Mo  Mo248  1  0.11234000  0.84546000  0.35397500  1
  Mo  Mo249  1  0.08318000  0.91234000  0.30682500  1
  Mo  Mo250  1  0.04546000  0.88318000  0.39042500  1
  Pb  Pb251  1  0.00000000  0.80000000  0.25000000  1
  S  S252  1  0.05142000  0.92336000  0.46860000  1
  S  S253  1  0.17488000  0.85142000  0.40420000  1
  S  S254  1  0.12336000  0.97488000  0.31427500  1
  S  S255  1  0.14858000  0.87664000  0.28140000  1
  S  S256  1  0.02512000  0.94858000  0.34580000  1
  S  S257  1  0.07664000  0.82512000  0.43572500  1
  S  S258  1  0.15152000  0.95152000  0.43940000  1
  S  S259  1  0.04848000  0.84848000  0.31060000  1
  Mo  Mo260  1  0.08766000  0.95454000  0.64602500  1
  Mo  Mo261  1  0.11682000  0.88766000  0.69317500  1
  Mo  Mo262  1  0.15454000  0.91682000  0.60957500  1
  Mo  Mo263  1  0.11234000  0.84546000  0.60397500  1
  Mo  Mo264  1  0.08318000  0.91234000  0.55682500  1
  Mo  Mo265  1  0.04546000  0.88318000  0.64042500  1
  Pb  Pb266  1  0.00000000  0.80000000  0.50000000  1
  S  S267  1  0.05142000  0.92336000  0.71860000  1
  S  S268  1  0.17488000  0.85142000  0.65420000  1
  S  S269  1  0.12336000  0.97488000  0.56427500  1
  S  S270  1  0.14858000  0.87664000  0.53140000  1
  S  S271  1  0.02512000  0.94858000  0.59580000  1
  S  S272  1  0.07664000  0.82512000  0.68572500  1
  S  S273  1  0.15152000  0.95152000  0.68940000  1
  Mo  Mo274  1  0.08766000  0.95454000  0.89602500  1
  Mo  Mo275  1  0.11682000  0.88766000  0.94317500  1
  Mo  Mo276  1  0.15454000  0.91682000  0.85957500  1
  Mo  Mo277  1  0.11234000  0.84546000  0.85397500  1
  Mo  Mo278  1  0.08318000  0.91234000  0.80682500  1
  Mo  Mo279  1  0.04546000  0.88318000  0.89042500  1
  S  S280  1  0.05142000  0.92336000  0.96860000  1
  S  S281  1  0.17488000  0.85142000  0.90420000  1
  S  S282  1  0.12336000  0.97488000  0.81427500  1
  S  S283  1  0.14858000  0.87664000  0.78140000  1
  S  S284  1  0.02512000  0.94858000  0.84580000  1
  S  S285  1  0.07664000  0.82512000  0.93572500  1
  S  S286  1  0.15152000  0.95152000  0.93940000  1
  S  S287  1  0.04848000  0.84848000  0.81060000  1
  Mo  Mo288  1  0.28766000  0.15454000  0.14602500  1
  Mo  Mo289  1  0.31682000  0.08766000  0.19317500  1
  Mo  Mo290  1  0.35454000  0.11682000  0.10957500  1
  Mo  Mo291  1  0.31234000  0.04546000  0.10397500  1
  Mo  Mo292  1  0.28318000  0.11234000  0.05682500  1
  Mo  Mo293  1  0.24546000  0.08318000  0.14042500  1
  Pb  Pb294  1  0.20000000  0.00000000  0.00000000  1
  S  S295  1  0.25142000  0.12336000  0.21860000  1
  S  S296  1  0.37488000  0.05142000  0.15420000  1
  S  S297  1  0.32336000  0.17488000  0.06427500  1
  S  S298  1  0.34858000  0.07664000  0.03140000  1
  S  S299  1  0.22512000  0.14858000  0.09580000  1
  S  S300  1  0.27664000  0.02512000  0.18572500  1
  S  S301  1  0.35152000  0.15152000  0.18940000  1
  S  S302  1  0.24848000  0.04848000  0.06060000  1
  Mo  Mo303  1  0.28766000  0.15454000  0.39602500  1
  Mo  Mo304  1  0.31682000  0.08766000  0.44317500  1
  Mo  Mo305  1  0.35454000  0.11682000  0.35957500  1
  Mo  Mo306  1  0.31234000  0.04546000  0.35397500  1
  Mo  Mo307  1  0.28318000  0.11234000  0.30682500  1
  Mo  Mo308  1  0.24546000  0.08318000  0.39042500  1
  Pb  Pb309  1  0.20000000  0.00000000  0.25000000  1
  S  S310  1  0.25142000  0.12336000  0.46860000  1
  S  S311  1  0.37488000  0.05142000  0.40420000  1
  S  S312  1  0.32336000  0.17488000  0.31427500  1
  S  S313  1  0.34858000  0.07664000  0.28140000  1
  S  S314  1  0.22512000  0.14858000  0.34580000  1
  S  S315  1  0.27664000  0.02512000  0.43572500  1
  S  S316  1  0.24848000  0.04848000  0.31060000  1
  Mo  Mo317  1  0.28766000  0.15454000  0.64602500  1
  Mo  Mo318  1  0.31682000  0.08766000  0.69317500  1
  Mo  Mo319  1  0.35454000  0.11682000  0.60957500  1
  Mo  Mo320  1  0.31234000  0.04546000  0.60397500  1
  Mo  Mo321  1  0.28318000  0.11234000  0.55682500  1
  Mo  Mo322  1  0.24546000  0.08318000  0.64042500  1
  Pb  Pb323  1  0.20000000  0.00000000  0.50000000  1
  S  S324  1  0.25142000  0.12336000  0.71860000  1
  S  S325  1  0.37488000  0.05142000  0.65420000  1
  S  S326  1  0.32336000  0.17488000  0.56427500  1
  S  S327  1  0.34858000  0.07664000  0.53140000  1
  S  S328  1  0.22512000  0.14858000  0.59580000  1
  S  S329  1  0.27664000  0.02512000  0.68572500  1
  Mo  Mo330  1  0.28766000  0.15454000  0.89602500  1
  Mo  Mo331  1  0.31682000  0.08766000  0.94317500  1
  Mo  Mo332  1  0.35454000  0.11682000  0.85957500  1
  Mo  Mo333  1  0.31234000  0.04546000  0.85397500  1
  Mo  Mo334  1  0.28318000  0.11234000  0.80682500  1
  Mo  Mo335  1  0.24546000  0.08318000  0.89042500  1
  S  S336  1  0.25142000  0.12336000  0.96860000  1
  S  S337  1  0.37488000  0.05142000  0.90420000  1
  S  S338  1  0.32336000  0.17488000  0.81427500  1
  S  S339  1  0.34858000  0.07664000  0.78140000  1
  S  S340  1  0.22512000  0.14858000  0.84580000  1
  S  S341  1  0.27664000  0.02512000  0.93572500  1
  S  S342  1  0.24848000  0.04848000  0.81060000  1
  Mo  Mo343  1  0.28766000  0.35454000  0.14602500  1
  Mo  Mo344  1  0.31682000  0.28766000  0.19317500  1
  Mo  Mo345  1  0.35454000  0.31682000  0.10957500  1
  Mo  Mo346  1  0.31234000  0.24546000  0.10397500  1
  Mo  Mo347  1  0.28318000  0.31234000  0.05682500  1
  Mo  Mo348  1  0.24546000  0.28318000  0.14042500  1
  Pb  Pb349  1  0.20000000  0.20000000  0.00000000  1
  S  S350  1  0.25142000  0.32336000  0.21860000  1
  S  S351  1  0.37488000  0.25142000  0.15420000  1
  S  S352  1  0.32336000  0.37488000  0.06427500  1
  S  S353  1  0.34858000  0.27664000  0.03140000  1
  S  S354  1  0.22512000  0.34858000  0.09580000  1
  S  S355  1  0.27664000  0.22512000  0.18572500  1
  S  S356  1  0.35152000  0.35152000  0.18940000  1
  S  S357  1  0.24848000  0.24848000  0.06060000  1
  Mo  Mo358  1  0.28766000  0.35454000  0.39602500  1
  Mo  Mo359  1  0.31682000  0.28766000  0.44317500  1
  Mo  Mo360  1  0.35454000  0.31682000  0.35957500  1
  Mo  Mo361  1  0.31234000  0.24546000  0.35397500  1
  Mo  Mo362  1  0.28318000  0.31234000  0.30682500  1
  Mo  Mo363  1  0.24546000  0.28318000  0.39042500  1
  Pb  Pb364  1  0.20000000  0.20000000  0.25000000  1
  S  S365  1  0.25142000  0.32336000  0.46860000  1
  S  S366  1  0.37488000  0.25142000  0.40420000  1
  S  S367  1  0.32336000  0.37488000  0.31427500  1
  S  S368  1  0.34858000  0.27664000  0.28140000  1
  S  S369  1  0.22512000  0.34858000  0.34580000  1
  S  S370  1  0.27664000  0.22512000  0.43572500  1
  S  S371  1  0.35152000  0.35152000  0.43940000  1
  S  S372  1  0.24848000  0.24848000  0.31060000  1
  Mo  Mo373  1  0.28766000  0.35454000  0.64602500  1
  Mo  Mo374  1  0.31682000  0.28766000  0.69317500  1
  Mo  Mo375  1  0.35454000  0.31682000  0.60957500  1
  Mo  Mo376  1  0.31234000  0.24546000  0.60397500  1
  Mo  Mo377  1  0.28318000  0.31234000  0.55682500  1
  Mo  Mo378  1  0.24546000  0.28318000  0.64042500  1
  Pb  Pb379  1  0.20000000  0.20000000  0.50000000  1
  S  S380  1  0.25142000  0.32336000  0.71860000  1
  S  S381  1  0.37488000  0.25142000  0.65420000  1
  S  S382  1  0.32336000  0.37488000  0.56427500  1
  S  S383  1  0.34858000  0.27664000  0.53140000  1
  S  S384  1  0.22512000  0.34858000  0.59580000  1
  S  S385  1  0.27664000  0.22512000  0.68572500  1
  S  S386  1  0.35152000  0.35152000  0.68940000  1
  S  S387  1  0.24848000  0.24848000  0.56060000  1
  Mo  Mo388  1  0.28766000  0.35454000  0.89602500  1
  Mo  Mo389  1  0.31682000  0.28766000  0.94317500  1
  Mo  Mo390  1  0.35454000  0.31682000  0.85957500  1
  Mo  Mo391  1  0.31234000  0.24546000  0.85397500  1
  Mo  Mo392  1  0.28318000  0.31234000  0.80682500  1
  Mo  Mo393  1  0.24546000  0.28318000  0.89042500  1
  Pb  Pb394  1  0.20000000  0.20000000  0.75000000  1
  S  S395  1  0.25142000  0.32336000  0.96860000  1
  S  S396  1  0.37488000  0.25142000  0.90420000  1
  S  S397  1  0.32336000  0.37488000  0.81427500  1
  S  S398  1  0.34858000  0.27664000  0.78140000  1
  S  S399  1  0.22512000  0.34858000  0.84580000  1
  S  S400  1  0.27664000  0.22512000  0.93572500  1
  S  S401  1  0.35152000  0.35152000  0.93940000  1
  S  S402  1  0.24848000  0.24848000  0.81060000  1
  Mo  Mo403  1  0.28766000  0.55454000  0.14602500  1
  Mo  Mo404  1  0.31682000  0.48766000  0.19317500  1
  Mo  Mo405  1  0.35454000  0.51682000  0.10957500  1
  Mo  Mo406  1  0.31234000  0.44546000  0.10397500  1
  Mo  Mo407  1  0.28318000  0.51234000  0.05682500  1
  Mo  Mo408  1  0.24546000  0.48318000  0.14042500  1
  Pb  Pb409  1  0.20000000  0.40000000  0.00000000  1
  S  S410  1  0.25142000  0.52336000  0.21860000  1
  S  S411  1  0.37488000  0.45142000  0.15420000  1
  S  S412  1  0.32336000  0.57488000  0.06427500  1
  S  S413  1  0.34858000  0.47664000  0.03140000  1
  S  S414  1  0.22512000  0.54858000  0.09580000  1
  S  S415  1  0.27664000  0.42512000  0.18572500  1
  S  S416  1  0.35152000  0.55152000  0.18940000  1
  Mo  Mo417  1  0.28766000  0.55454000  0.39602500  1
  Mo  Mo418  1  0.31682000  0.48766000  0.44317500  1
  Mo  Mo419  1  0.35454000  0.51682000  0.35957500  1
  Mo  Mo420  1  0.31234000  0.44546000  0.35397500  1
  Mo  Mo421  1  0.28318000  0.51234000  0.30682500  1
  Mo  Mo422  1  0.24546000  0.48318000  0.39042500  1
  Pb  Pb423  1  0.20000000  0.40000000  0.25000000  1
  S  S424  1  0.25142000  0.52336000  0.46860000  1
  S  S425  1  0.37488000  0.45142000  0.40420000  1
  S  S426  1  0.32336000  0.57488000  0.31427500  1
  S  S427  1  0.34858000  0.47664000  0.28140000  1
  S  S428  1  0.22512000  0.54858000  0.34580000  1
  S  S429  1  0.27664000  0.42512000  0.43572500  1
  S  S430  1  0.35152000  0.55152000  0.43940000  1
  Mo  Mo431  1  0.28766000  0.55454000  0.64602500  1
  Mo  Mo432  1  0.31682000  0.48766000  0.69317500  1
  Mo  Mo433  1  0.35454000  0.51682000  0.60957500  1
  Mo  Mo434  1  0.31234000  0.44546000  0.60397500  1
  Mo  Mo435  1  0.28318000  0.51234000  0.55682500  1
  Mo  Mo436  1  0.24546000  0.48318000  0.64042500  1
  Pb  Pb437  1  0.20000000  0.40000000  0.50000000  1
  S  S438  1  0.25142000  0.52336000  0.71860000  1
  S  S439  1  0.37488000  0.45142000  0.65420000  1
  S  S440  1  0.32336000  0.57488000  0.56427500  1
  S  S441  1  0.34858000  0.47664000  0.53140000  1
  S  S442  1  0.22512000  0.54858000  0.59580000  1
  S  S443  1  0.27664000  0.42512000  0.68572500  1
  S  S444  1  0.35152000  0.55152000  0.68940000  1
  S  S445  1  0.24848000  0.44848000  0.56060000  1
  Mo  Mo446  1  0.28766000  0.55454000  0.89602500  1
  Mo  Mo447  1  0.31682000  0.48766000  0.94317500  1
  Mo  Mo448  1  0.35454000  0.51682000  0.85957500  1
  Mo  Mo449  1  0.31234000  0.44546000  0.85397500  1
  Mo  Mo450  1  0.28318000  0.51234000  0.80682500  1
  Mo  Mo451  1  0.24546000  0.48318000  0.89042500  1
  Pb  Pb452  1  0.20000000  0.40000000  0.75000000  1
  S  S453  1  0.25142000  0.52336000  0.96860000  1
  S  S454  1  0.37488000  0.45142000  0.90420000  1
  S  S455  1  0.32336000  0.57488000  0.81427500  1
  S  S456  1  0.34858000  0.47664000  0.78140000  1
  S  S457  1  0.22512000  0.54858000  0.84580000  1
  S  S458  1  0.27664000  0.42512000  0.93572500  1
  S  S459  1  0.35152000  0.55152000  0.93940000  1
  S  S460  1  0.24848000  0.44848000  0.81060000  1
  Mo  Mo461  1  0.28766000  0.75454000  0.14602500  1
  Mo  Mo462  1  0.31682000  0.68766000  0.19317500  1
  Mo  Mo463  1  0.35454000  0.71682000  0.10957500  1
  Mo  Mo464  1  0.31234000  0.64546000  0.10397500  1
  Mo  Mo465  1  0.28318000  0.71234000  0.05682500  1
  Mo  Mo466  1  0.24546000  0.68318000  0.14042500  1
  Pb  Pb467  1  0.20000000  0.60000000  0.00000000  1
  S  S468  1  0.25142000  0.72336000  0.21860000  1
  S  S469  1  0.37488000  0.65142000  0.15420000  1
  S  S470  1  0.32336000  0.77488000  0.06427500  1
  S  S471  1  0.34858000  0.67664000  0.03140000  1
  S  S472  1  0.22512000  0.74858000  0.09580000  1
  S  S473  1  0.27664000  0.62512000  0.18572500  1
  S  S474  1  0.24848000  0.64848000  0.06060000  1
  Mo  Mo475  1  0.28766000  0.75454000  0.39602500  1
  Mo  Mo476  1  0.31682000  0.68766000  0.44317500  1
  Mo  Mo477  1  0.35454000  0.71682000  0.35957500  1
  Mo  Mo478  1  0.31234000  0.64546000  0.35397500  1
  Mo  Mo479  1  0.28318000  0.71234000  0.30682500  1
  Mo  Mo480  1  0.24546000  0.68318000  0.39042500  1
  Pb  Pb481  1  0.20000000  0.60000000  0.25000000  1
  S  S482  1  0.25142000  0.72336000  0.46860000  1
  S  S483  1  0.37488000  0.65142000  0.40420000  1
  S  S484  1  0.32336000  0.77488000  0.31427500  1
  S  S485  1  0.34858000  0.67664000  0.28140000  1
  S  S486  1  0.22512000  0.74858000  0.34580000  1
  S  S487  1  0.27664000  0.62512000  0.43572500  1
  S  S488  1  0.35152000  0.75152000  0.43940000  1
  S  S489  1  0.24848000  0.64848000  0.31060000  1
  Mo  Mo490  1  0.28766000  0.75454000  0.64602500  1
  Mo  Mo491  1  0.31682000  0.68766000  0.69317500  1
  Mo  Mo492  1  0.35454000  0.71682000  0.60957500  1
  Mo  Mo493  1  0.31234000  0.64546000  0.60397500  1
  Mo  Mo494  1  0.28318000  0.71234000  0.55682500  1
  Mo  Mo495  1  0.24546000  0.68318000  0.64042500  1
  Pb  Pb496  1  0.20000000  0.60000000  0.50000000  1
  S  S497  1  0.25142000  0.72336000  0.71860000  1
  S  S498  1  0.37488000  0.65142000  0.65420000  1
  S  S499  1  0.32336000  0.77488000  0.56427500  1
  S  S500  1  0.34858000  0.67664000  0.53140000  1
  S  S501  1  0.22512000  0.74858000  0.59580000  1
  S  S502  1  0.27664000  0.62512000  0.68572500  1
  S  S503  1  0.35152000  0.75152000  0.68940000  1
  S  S504  1  0.24848000  0.64848000  0.56060000  1
  Mo  Mo505  1  0.28766000  0.75454000  0.89602500  1
  Mo  Mo506  1  0.31682000  0.68766000  0.94317500  1
  Mo  Mo507  1  0.35454000  0.71682000  0.85957500  1
  Mo  Mo508  1  0.31234000  0.64546000  0.85397500  1
  Mo  Mo509  1  0.28318000  0.71234000  0.80682500  1
  Mo  Mo510  1  0.24546000  0.68318000  0.89042500  1
  S  S511  1  0.25142000  0.72336000  0.96860000  1
  S  S512  1  0.37488000  0.65142000  0.90420000  1
  S  S513  1  0.32336000  0.77488000  0.81427500  1
  S  S514  1  0.34858000  0.67664000  0.78140000  1
  S  S515  1  0.22512000  0.74858000  0.84580000  1
  S  S516  1  0.27664000  0.62512000  0.93572500  1
  S  S517  1  0.24848000  0.64848000  0.81060000  1
  Mo  Mo518  1  0.28766000  0.95454000  0.14602500  1
  Mo  Mo519  1  0.31682000  0.88766000  0.19317500  1
  Mo  Mo520  1  0.35454000  0.91682000  0.10957500  1
  Mo  Mo521  1  0.31234000  0.84546000  0.10397500  1
  Mo  Mo522  1  0.28318000  0.91234000  0.05682500  1
  Mo  Mo523  1  0.24546000  0.88318000  0.14042500  1
  Pb  Pb524  1  0.20000000  0.80000000  0.00000000  1
  S  S525  1  0.25142000  0.92336000  0.21860000  1
  S  S526  1  0.37488000  0.85142000  0.15420000  1
  S  S527  1  0.32336000  0.97488000  0.06427500  1
  S  S528  1  0.34858000  0.87664000  0.03140000  1
  S  S529  1  0.22512000  0.94858000  0.09580000  1
  S  S530  1  0.27664000  0.82512000  0.18572500  1
  S  S531  1  0.35152000  0.95152000  0.18940000  1
  S  S532  1  0.24848000  0.84848000  0.06060000  1
  Mo  Mo533  1  0.28766000  0.95454000  0.39602500  1
  Mo  Mo534  1  0.31682000  0.88766000  0.44317500  1
  Mo  Mo535  1  0.35454000  0.91682000  0.35957500  1
  Mo  Mo536  1  0.31234000  0.84546000  0.35397500  1
  Mo  Mo537  1  0.28318000  0.91234000  0.30682500  1
  Mo  Mo538  1  0.24546000  0.88318000  0.39042500  1
  Pb  Pb539  1  0.20000000  0.80000000  0.25000000  1
  S  S540  1  0.25142000  0.92336000  0.46860000  1
  S  S541  1  0.37488000  0.85142000  0.40420000  1
  S  S542  1  0.32336000  0.97488000  0.31427500  1
  S  S543  1  0.34858000  0.87664000  0.28140000  1
  S  S544  1  0.22512000  0.94858000  0.34580000  1
  S  S545  1  0.27664000  0.82512000  0.43572500  1
  Mo  Mo546  1  0.28766000  0.95454000  0.64602500  1
  Mo  Mo547  1  0.31682000  0.88766000  0.69317500  1
  Mo  Mo548  1  0.35454000  0.91682000  0.60957500  1
  Mo  Mo549  1  0.31234000  0.84546000  0.60397500  1
  Mo  Mo550  1  0.28318000  0.91234000  0.55682500  1
  Mo  Mo551  1  0.24546000  0.88318000  0.64042500  1
  Pb  Pb552  1  0.20000000  0.80000000  0.50000000  1
  S  S553  1  0.25142000  0.92336000  0.71860000  1
  S  S554  1  0.37488000  0.85142000  0.65420000  1
  S  S555  1  0.32336000  0.97488000  0.56427500  1
  S  S556  1  0.34858000  0.87664000  0.53140000  1
  S  S557  1  0.22512000  0.94858000  0.59580000  1
  S  S558  1  0.27664000  0.82512000  0.68572500  1
  S  S559  1  0.35152000  0.95152000  0.68940000  1
  S  S560  1  0.24848000  0.84848000  0.56060000  1
  Mo  Mo561  1  0.28766000  0.95454000  0.89602500  1
  Mo  Mo562  1  0.31682000  0.88766000  0.94317500  1
  Mo  Mo563  1  0.35454000  0.91682000  0.85957500  1
  Mo  Mo564  1  0.31234000  0.84546000  0.85397500  1
  Mo  Mo565  1  0.28318000  0.91234000  0.80682500  1
  Mo  Mo566  1  0.24546000  0.88318000  0.89042500  1
  Pb  Pb567  1  0.20000000  0.80000000  0.75000000  1
  S  S568  1  0.25142000  0.92336000  0.96860000  1
  S  S569  1  0.37488000  0.85142000  0.90420000  1
  S  S570  1  0.32336000  0.97488000  0.81427500  1
  S  S571  1  0.34858000  0.87664000  0.78140000  1
  S  S572  1  0.22512000  0.94858000  0.84580000  1
  S  S573  1  0.27664000  0.82512000  0.93572500  1
  S  S574  1  0.35152000  0.95152000  0.93940000  1
  S  S575  1  0.24848000  0.84848000  0.81060000  1
  Mo  Mo576  1  0.48766000  0.15454000  0.14602500  1
  Mo  Mo577  1  0.51682000  0.08766000  0.19317500  1
  Mo  Mo578  1  0.55454000  0.11682000  0.10957500  1
  Mo  Mo579  1  0.51234000  0.04546000  0.10397500  1
  Mo  Mo580  1  0.48318000  0.11234000  0.05682500  1
  Mo  Mo581  1  0.44546000  0.08318000  0.14042500  1
  Pb  Pb582  1  0.40000000  0.00000000  0.00000000  1
  S  S583  1  0.45142000  0.12336000  0.21860000  1
  S  S584  1  0.57488000  0.05142000  0.15420000  1
  S  S585  1  0.52336000  0.17488000  0.06427500  1
  S  S586  1  0.54858000  0.07664000  0.03140000  1
  S  S587  1  0.42512000  0.14858000  0.09580000  1
  S  S588  1  0.47664000  0.02512000  0.18572500  1
  S  S589  1  0.55152000  0.15152000  0.18940000  1
  Mo  Mo590  1  0.48766000  0.15454000  0.39602500  1
  Mo  Mo591  1  0.51682000  0.08766000  0.44317500  1
  Mo  Mo592  1  0.55454000  0.11682000  0.35957500  1
  Mo  Mo593  1  0.51234000  0.04546000  0.35397500  1
  Mo  Mo594  1  0.48318000  0.11234000  0.30682500  1
  Mo  Mo595  1  0.44546000  0.08318000  0.39042500  1
  S  S596  1  0.45142000  0.12336000  0.46860000  1
  S  S597  1  0.57488000  0.05142000  0.40420000  1
  S  S598  1  0.52336000  0.17488000  0.31427500  1
  S  S599  1  0.54858000  0.07664000  0.28140000  1
  S  S600  1  0.42512000  0.14858000  0.34580000  1
  S  S601  1  0.47664000  0.02512000  0.43572500  1
  S  S602  1  0.55152000  0.15152000  0.43940000  1
  S  S603  1  0.44848000  0.04848000  0.31060000  1
  Mo  Mo604  1  0.48766000  0.15454000  0.64602500  1
  Mo  Mo605  1  0.51682000  0.08766000  0.69317500  1
  Mo  Mo606  1  0.55454000  0.11682000  0.60957500  1
  Mo  Mo607  1  0.51234000  0.04546000  0.60397500  1
  Mo  Mo608  1  0.48318000  0.11234000  0.55682500  1
  Mo  Mo609  1  0.44546000  0.08318000  0.64042500  1
  Pb  Pb610  1  0.40000000  0.00000000  0.50000000  1
  S  S611  1  0.45142000  0.12336000  0.71860000  1
  S  S612  1  0.57488000  0.05142000  0.65420000  1
  S  S613  1  0.52336000  0.17488000  0.56427500  1
  S  S614  1  0.54858000  0.07664000  0.53140000  1
  S  S615  1  0.42512000  0.14858000  0.59580000  1
  S  S616  1  0.47664000  0.02512000  0.68572500  1
  S  S617  1  0.55152000  0.15152000  0.68940000  1
  S  S618  1  0.44848000  0.04848000  0.56060000  1
  Mo  Mo619  1  0.48766000  0.15454000  0.89602500  1
  Mo  Mo620  1  0.51682000  0.08766000  0.94317500  1
  Mo  Mo621  1  0.55454000  0.11682000  0.85957500  1
  Mo  Mo622  1  0.51234000  0.04546000  0.85397500  1
  Mo  Mo623  1  0.48318000  0.11234000  0.80682500  1
  Mo  Mo624  1  0.44546000  0.08318000  0.89042500  1
  Pb  Pb625  1  0.40000000  0.00000000  0.75000000  1
  S  S626  1  0.45142000  0.12336000  0.96860000  1
  S  S627  1  0.57488000  0.05142000  0.90420000  1
  S  S628  1  0.52336000  0.17488000  0.81427500  1
  S  S629  1  0.54858000  0.07664000  0.78140000  1
  S  S630  1  0.42512000  0.14858000  0.84580000  1
  S  S631  1  0.47664000  0.02512000  0.93572500  1
  S  S632  1  0.44848000  0.04848000  0.81060000  1
  Mo  Mo633  1  0.48766000  0.35454000  0.14602500  1
  Mo  Mo634  1  0.51682000  0.28766000  0.19317500  1
  Mo  Mo635  1  0.55454000  0.31682000  0.10957500  1
  Mo  Mo636  1  0.51234000  0.24546000  0.10397500  1
  Mo  Mo637  1  0.48318000  0.31234000  0.05682500  1
  Mo  Mo638  1  0.44546000  0.28318000  0.14042500  1
  Pb  Pb639  1  0.40000000  0.20000000  0.00000000  1
  S  S640  1  0.45142000  0.32336000  0.21860000  1
  S  S641  1  0.57488000  0.25142000  0.15420000  1
  S  S642  1  0.52336000  0.37488000  0.06427500  1
  S  S643  1  0.54858000  0.27664000  0.03140000  1
  S  S644  1  0.42512000  0.34858000  0.09580000  1
  S  S645  1  0.47664000  0.22512000  0.18572500  1
  S  S646  1  0.55152000  0.35152000  0.18940000  1
  S  S647  1  0.44848000  0.24848000  0.06060000  1
  Mo  Mo648  1  0.48766000  0.35454000  0.39602500  1
  Mo  Mo649  1  0.51682000  0.28766000  0.44317500  1
  Mo  Mo650  1  0.55454000  0.31682000  0.35957500  1
  Mo  Mo651  1  0.51234000  0.24546000  0.35397500  1
  Mo  Mo652  1  0.48318000  0.31234000  0.30682500  1
  Mo  Mo653  1  0.44546000  0.28318000  0.39042500  1
  Pb  Pb654  1  0.40000000  0.20000000  0.25000000  1
  S  S655  1  0.45142000  0.32336000  0.46860000  1
  S  S656  1  0.57488000  0.25142000  0.40420000  1
  S  S657  1  0.52336000  0.37488000  0.31427500  1
  S  S658  1  0.54858000  0.27664000  0.28140000  1
  S  S659  1  0.42512000  0.34858000  0.34580000  1
  S  S660  1  0.47664000  0.22512000  0.43572500  1
  S  S661  1  0.55152000  0.35152000  0.43940000  1
  S  S662  1  0.44848000  0.24848000  0.31060000  1
  Mo  Mo663  1  0.48766000  0.35454000  0.64602500  1
  Mo  Mo664  1  0.51682000  0.28766000  0.69317500  1
  Mo  Mo665  1  0.55454000  0.31682000  0.60957500  1
  Mo  Mo666  1  0.51234000  0.24546000  0.60397500  1
  Mo  Mo667  1  0.48318000  0.31234000  0.55682500  1
  Mo  Mo668  1  0.44546000  0.28318000  0.64042500  1
  Pb  Pb669  1  0.40000000  0.20000000  0.50000000  1
  S  S670  1  0.45142000  0.32336000  0.71860000  1
  S  S671  1  0.57488000  0.25142000  0.65420000  1
  S  S672  1  0.52336000  0.37488000  0.56427500  1
  S  S673  1  0.54858000  0.27664000  0.53140000  1
  S  S674  1  0.42512000  0.34858000  0.59580000  1
  S  S675  1  0.47664000  0.22512000  0.68572500  1
  S  S676  1  0.55152000  0.35152000  0.68940000  1
  Mo  Mo677  1  0.48766000  0.35454000  0.89602500  1
  Mo  Mo678  1  0.51682000  0.28766000  0.94317500  1
  Mo  Mo679  1  0.55454000  0.31682000  0.85957500  1
  Mo  Mo680  1  0.51234000  0.24546000  0.85397500  1
  Mo  Mo681  1  0.48318000  0.31234000  0.80682500  1
  Mo  Mo682  1  0.44546000  0.28318000  0.89042500  1
  Pb  Pb683  1  0.40000000  0.20000000  0.75000000  1
  S  S684  1  0.45142000  0.32336000  0.96860000  1
  S  S685  1  0.57488000  0.25142000  0.90420000  1
  S  S686  1  0.52336000  0.37488000  0.81427500  1
  S  S687  1  0.54858000  0.27664000  0.78140000  1
  S  S688  1  0.42512000  0.34858000  0.84580000  1
  S  S689  1  0.47664000  0.22512000  0.93572500  1
  S  S690  1  0.44848000  0.24848000  0.81060000  1
  Mo  Mo691  1  0.48766000  0.55454000  0.14602500  1
  Mo  Mo692  1  0.51682000  0.48766000  0.19317500  1
  Mo  Mo693  1  0.55454000  0.51682000  0.10957500  1
  Mo  Mo694  1  0.51234000  0.44546000  0.10397500  1
  Mo  Mo695  1  0.48318000  0.51234000  0.05682500  1
  Mo  Mo696  1  0.44546000  0.48318000  0.14042500  1
  Pb  Pb697  1  0.40000000  0.40000000  0.00000000  1
  S  S698  1  0.45142000  0.52336000  0.21860000  1
  S  S699  1  0.57488000  0.45142000  0.15420000  1
  S  S700  1  0.52336000  0.57488000  0.06427500  1
  S  S701  1  0.54858000  0.47664000  0.03140000  1
  S  S702  1  0.42512000  0.54858000  0.09580000  1
  S  S703  1  0.47664000  0.42512000  0.18572500  1
  S  S704  1  0.44848000  0.44848000  0.06060000  1
  Mo  Mo705  1  0.48766000  0.55454000  0.39602500  1
  Mo  Mo706  1  0.51682000  0.48766000  0.44317500  1
  Mo  Mo707  1  0.55454000  0.51682000  0.35957500  1
  Mo  Mo708  1  0.51234000  0.44546000  0.35397500  1
  Mo  Mo709  1  0.48318000  0.51234000  0.30682500  1
  Mo  Mo710  1  0.44546000  0.48318000  0.39042500  1
  Pb  Pb711  1  0.40000000  0.40000000  0.25000000  1
  S  S712  1  0.45142000  0.52336000  0.46860000  1
  S  S713  1  0.57488000  0.45142000  0.40420000  1
  S  S714  1  0.52336000  0.57488000  0.31427500  1
  S  S715  1  0.54858000  0.47664000  0.28140000  1
  S  S716  1  0.42512000  0.54858000  0.34580000  1
  S  S717  1  0.47664000  0.42512000  0.43572500  1
  S  S718  1  0.55152000  0.55152000  0.43940000  1
  S  S719  1  0.44848000  0.44848000  0.31060000  1
  Mo  Mo720  1  0.48766000  0.55454000  0.64602500  1
  Mo  Mo721  1  0.51682000  0.48766000  0.69317500  1
  Mo  Mo722  1  0.55454000  0.51682000  0.60957500  1
  Mo  Mo723  1  0.51234000  0.44546000  0.60397500  1
  Mo  Mo724  1  0.48318000  0.51234000  0.55682500  1
  Mo  Mo725  1  0.44546000  0.48318000  0.64042500  1
  Pb  Pb726  1  0.40000000  0.40000000  0.50000000  1
  S  S727  1  0.45142000  0.52336000  0.71860000  1
  S  S728  1  0.57488000  0.45142000  0.65420000  1
  S  S729  1  0.52336000  0.57488000  0.56427500  1
  S  S730  1  0.54858000  0.47664000  0.53140000  1
  S  S731  1  0.42512000  0.54858000  0.59580000  1
  S  S732  1  0.47664000  0.42512000  0.68572500  1
  S  S733  1  0.55152000  0.55152000  0.68940000  1
  S  S734  1  0.44848000  0.44848000  0.56060000  1
  Mo  Mo735  1  0.48766000  0.55454000  0.89602500  1
  Mo  Mo736  1  0.51682000  0.48766000  0.94317500  1
  Mo  Mo737  1  0.55454000  0.51682000  0.85957500  1
  Mo  Mo738  1  0.51234000  0.44546000  0.85397500  1
  Mo  Mo739  1  0.48318000  0.51234000  0.80682500  1
  Mo  Mo740  1  0.44546000  0.48318000  0.89042500  1
  Pb  Pb741  1  0.40000000  0.40000000  0.75000000  1
  S  S742  1  0.45142000  0.52336000  0.96860000  1
  S  S743  1  0.57488000  0.45142000  0.90420000  1
  S  S744  1  0.52336000  0.57488000  0.81427500  1
  S  S745  1  0.54858000  0.47664000  0.78140000  1
  S  S746  1  0.42512000  0.54858000  0.84580000  1
  S  S747  1  0.47664000  0.42512000  0.93572500  1
  S  S748  1  0.55152000  0.55152000  0.93940000  1
  S  S749  1  0.44848000  0.44848000  0.81060000  1
  Mo  Mo750  1  0.48766000  0.75454000  0.14602500  1
  Mo  Mo751  1  0.51682000  0.68766000  0.19317500  1
  Mo  Mo752  1  0.55454000  0.71682000  0.10957500  1
  Mo  Mo753  1  0.51234000  0.64546000  0.10397500  1
  Mo  Mo754  1  0.48318000  0.71234000  0.05682500  1
  Mo  Mo755  1  0.44546000  0.68318000  0.14042500  1
  Pb  Pb756  1  0.40000000  0.60000000  0.00000000  1
  S  S757  1  0.45142000  0.72336000  0.21860000  1
  S  S758  1  0.57488000  0.65142000  0.15420000  1
  S  S759  1  0.52336000  0.77488000  0.06427500  1
  S  S760  1  0.54858000  0.67664000  0.03140000  1
  S  S761  1  0.42512000  0.74858000  0.09580000  1
  S  S762  1  0.47664000  0.62512000  0.18572500  1
  S  S763  1  0.55152000  0.75152000  0.18940000  1
  S  S764  1  0.44848000  0.64848000  0.06060000  1
  Mo  Mo765  1  0.48766000  0.75454000  0.39602500  1
  Mo  Mo766  1  0.51682000  0.68766000  0.44317500  1
  Mo  Mo767  1  0.55454000  0.71682000  0.35957500  1
  Mo  Mo768  1  0.51234000  0.64546000  0.35397500  1
  Mo  Mo769  1  0.48318000  0.71234000  0.30682500  1
  Mo  Mo770  1  0.44546000  0.68318000  0.39042500  1
  Pb  Pb771  1  0.40000000  0.60000000  0.25000000  1
  S  S772  1  0.45142000  0.72336000  0.46860000  1
  S  S773  1  0.57488000  0.65142000  0.40420000  1
  S  S774  1  0.52336000  0.77488000  0.31427500  1
  S  S775  1  0.54858000  0.67664000  0.28140000  1
  S  S776  1  0.42512000  0.74858000  0.34580000  1
  S  S777  1  0.47664000  0.62512000  0.43572500  1
  S  S778  1  0.55152000  0.75152000  0.43940000  1
  S  S779  1  0.44848000  0.64848000  0.31060000  1
  Mo  Mo780  1  0.48766000  0.75454000  0.64602500  1
  Mo  Mo781  1  0.51682000  0.68766000  0.69317500  1
  Mo  Mo782  1  0.55454000  0.71682000  0.60957500  1
  Mo  Mo783  1  0.51234000  0.64546000  0.60397500  1
  Mo  Mo784  1  0.48318000  0.71234000  0.55682500  1
  Mo  Mo785  1  0.44546000  0.68318000  0.64042500  1
  Pb  Pb786  1  0.40000000  0.60000000  0.50000000  1
  S  S787  1  0.45142000  0.72336000  0.71860000  1
  S  S788  1  0.57488000  0.65142000  0.65420000  1
  S  S789  1  0.52336000  0.77488000  0.56427500  1
  S  S790  1  0.54858000  0.67664000  0.53140000  1
  S  S791  1  0.42512000  0.74858000  0.59580000  1
  S  S792  1  0.47664000  0.62512000  0.68572500  1
  S  S793  1  0.55152000  0.75152000  0.68940000  1
  S  S794  1  0.44848000  0.64848000  0.56060000  1
  Mo  Mo795  1  0.48766000  0.75454000  0.89602500  1
  Mo  Mo796  1  0.51682000  0.68766000  0.94317500  1
  Mo  Mo797  1  0.55454000  0.71682000  0.85957500  1
  Mo  Mo798  1  0.51234000  0.64546000  0.85397500  1
  Mo  Mo799  1  0.48318000  0.71234000  0.80682500  1
  Mo  Mo800  1  0.44546000  0.68318000  0.89042500  1
  Pb  Pb801  1  0.40000000  0.60000000  0.75000000  1
  S  S802  1  0.45142000  0.72336000  0.96860000  1
  S  S803  1  0.57488000  0.65142000  0.90420000  1
  S  S804  1  0.52336000  0.77488000  0.81427500  1
  S  S805  1  0.54858000  0.67664000  0.78140000  1
  S  S806  1  0.42512000  0.74858000  0.84580000  1
  S  S807  1  0.47664000  0.62512000  0.93572500  1
  S  S808  1  0.44848000  0.64848000  0.81060000  1
  Mo  Mo809  1  0.48766000  0.95454000  0.14602500  1
  Mo  Mo810  1  0.51682000  0.88766000  0.19317500  1
  Mo  Mo811  1  0.55454000  0.91682000  0.10957500  1
  Mo  Mo812  1  0.51234000  0.84546000  0.10397500  1
  Mo  Mo813  1  0.48318000  0.91234000  0.05682500  1
  Mo  Mo814  1  0.44546000  0.88318000  0.14042500  1
  Pb  Pb815  1  0.40000000  0.80000000  0.00000000  1
  S  S816  1  0.45142000  0.92336000  0.21860000  1
  S  S817  1  0.57488000  0.85142000  0.15420000  1
  S  S818  1  0.52336000  0.97488000  0.06427500  1
  S  S819  1  0.54858000  0.87664000  0.03140000  1
  S  S820  1  0.42512000  0.94858000  0.09580000  1
  S  S821  1  0.47664000  0.82512000  0.18572500  1
  S  S822  1  0.55152000  0.95152000  0.18940000  1
  Mo  Mo823  1  0.48766000  0.95454000  0.39602500  1
  Mo  Mo824  1  0.51682000  0.88766000  0.44317500  1
  Mo  Mo825  1  0.55454000  0.91682000  0.35957500  1
  Mo  Mo826  1  0.51234000  0.84546000  0.35397500  1
  Mo  Mo827  1  0.48318000  0.91234000  0.30682500  1
  Mo  Mo828  1  0.44546000  0.88318000  0.39042500  1
  Pb  Pb829  1  0.40000000  0.80000000  0.25000000  1
  S  S830  1  0.45142000  0.92336000  0.46860000  1
  S  S831  1  0.57488000  0.85142000  0.40420000  1
  S  S832  1  0.52336000  0.97488000  0.31427500  1
  S  S833  1  0.54858000  0.87664000  0.28140000  1
  S  S834  1  0.42512000  0.94858000  0.34580000  1
  S  S835  1  0.47664000  0.82512000  0.43572500  1
  S  S836  1  0.55152000  0.95152000  0.43940000  1
  S  S837  1  0.44848000  0.84848000  0.31060000  1
  Mo  Mo838  1  0.48766000  0.95454000  0.64602500  1
  Mo  Mo839  1  0.51682000  0.88766000  0.69317500  1
  Mo  Mo840  1  0.55454000  0.91682000  0.60957500  1
  Mo  Mo841  1  0.51234000  0.84546000  0.60397500  1
  Mo  Mo842  1  0.48318000  0.91234000  0.55682500  1
  Mo  Mo843  1  0.44546000  0.88318000  0.64042500  1
  Pb  Pb844  1  0.40000000  0.80000000  0.50000000  1
  S  S845  1  0.45142000  0.92336000  0.71860000  1
  S  S846  1  0.57488000  0.85142000  0.65420000  1
  S  S847  1  0.52336000  0.97488000  0.56427500  1
  S  S848  1  0.54858000  0.87664000  0.53140000  1
  S  S849  1  0.42512000  0.94858000  0.59580000  1
  S  S850  1  0.47664000  0.82512000  0.68572500  1
  S  S851  1  0.55152000  0.95152000  0.68940000  1
  S  S852  1  0.44848000  0.84848000  0.56060000  1
  Mo  Mo853  1  0.48766000  0.95454000  0.89602500  1
  Mo  Mo854  1  0.51682000  0.88766000  0.94317500  1
  Mo  Mo855  1  0.55454000  0.91682000  0.85957500  1
  Mo  Mo856  1  0.51234000  0.84546000  0.85397500  1
  Mo  Mo857  1  0.48318000  0.91234000  0.80682500  1
  Mo  Mo858  1  0.44546000  0.88318000  0.89042500  1
  Pb  Pb859  1  0.40000000  0.80000000  0.75000000  1
  S  S860  1  0.45142000  0.92336000  0.96860000  1
  S  S861  1  0.57488000  0.85142000  0.90420000  1
  S  S862  1  0.52336000  0.97488000  0.81427500  1
  S  S863  1  0.54858000  0.87664000  0.78140000  1
  S  S864  1  0.42512000  0.94858000  0.84580000  1
  S  S865  1  0.47664000  0.82512000  0.93572500  1
  S  S866  1  0.55152000  0.95152000  0.93940000  1
  S  S867  1  0.44848000  0.84848000  0.81060000  1
  Mo  Mo868  1  0.68766000  0.15454000  0.14602500  1
  Mo  Mo869  1  0.71682000  0.08766000  0.19317500  1
  Mo  Mo870  1  0.75454000  0.11682000  0.10957500  1
  Mo  Mo871  1  0.71234000  0.04546000  0.10397500  1
  Mo  Mo872  1  0.68318000  0.11234000  0.05682500  1
  Mo  Mo873  1  0.64546000  0.08318000  0.14042500  1
  Pb  Pb874  1  0.60000000  0.00000000  0.00000000  1
  S  S875  1  0.65142000  0.12336000  0.21860000  1
  S  S876  1  0.77488000  0.05142000  0.15420000  1
  S  S877  1  0.72336000  0.17488000  0.06427500  1
  S  S878  1  0.74858000  0.07664000  0.03140000  1
  S  S879  1  0.62512000  0.14858000  0.09580000  1
  S  S880  1  0.67664000  0.02512000  0.18572500  1
  S  S881  1  0.75152000  0.15152000  0.18940000  1
  Mo  Mo882  1  0.68766000  0.15454000  0.39602500  1
  Mo  Mo883  1  0.71682000  0.08766000  0.44317500  1
  Mo  Mo884  1  0.75454000  0.11682000  0.35957500  1
  Mo  Mo885  1  0.71234000  0.04546000  0.35397500  1
  Mo  Mo886  1  0.68318000  0.11234000  0.30682500  1
  Mo  Mo887  1  0.64546000  0.08318000  0.39042500  1
  Pb  Pb888  1  0.60000000  0.00000000  0.25000000  1
  S  S889  1  0.65142000  0.12336000  0.46860000  1
  S  S890  1  0.77488000  0.05142000  0.40420000  1
  S  S891  1  0.72336000  0.17488000  0.31427500  1
  S  S892  1  0.74858000  0.07664000  0.28140000  1
  S  S893  1  0.62512000  0.14858000  0.34580000  1
  S  S894  1  0.67664000  0.02512000  0.43572500  1
  S  S895  1  0.75152000  0.15152000  0.43940000  1
  Mo  Mo896  1  0.68766000  0.15454000  0.64602500  1
  Mo  Mo897  1  0.71682000  0.08766000  0.69317500  1
  Mo  Mo898  1  0.75454000  0.11682000  0.60957500  1
  Mo  Mo899  1  0.71234000  0.04546000  0.60397500  1
  Mo  Mo900  1  0.68318000  0.11234000  0.55682500  1
  Mo  Mo901  1  0.64546000  0.08318000  0.64042500  1
  S  S902  1  0.65142000  0.12336000  0.71860000  1
  S  S903  1  0.77488000  0.05142000  0.65420000  1
  S  S904  1  0.72336000  0.17488000  0.56427500  1
  S  S905  1  0.74858000  0.07664000  0.53140000  1
  S  S906  1  0.62512000  0.14858000  0.59580000  1
  S  S907  1  0.67664000  0.02512000  0.68572500  1
  S  S908  1  0.75152000  0.15152000  0.68940000  1
  S  S909  1  0.64848000  0.04848000  0.56060000  1
  Mo  Mo910  1  0.68766000  0.15454000  0.89602500  1
  Mo  Mo911  1  0.71682000  0.08766000  0.94317500  1
  Mo  Mo912  1  0.75454000  0.11682000  0.85957500  1
  Mo  Mo913  1  0.71234000  0.04546000  0.85397500  1
  Mo  Mo914  1  0.68318000  0.11234000  0.80682500  1
  Mo  Mo915  1  0.64546000  0.08318000  0.89042500  1
  Pb  Pb916  1  0.60000000  0.00000000  0.75000000  1
  S  S917  1  0.65142000  0.12336000  0.96860000  1
  S  S918  1  0.77488000  0.05142000  0.90420000  1
  S  S919  1  0.72336000  0.17488000  0.81427500  1
  S  S920  1  0.74858000  0.07664000  0.78140000  1
  S  S921  1  0.62512000  0.14858000  0.84580000  1
  S  S922  1  0.67664000  0.02512000  0.93572500  1
  S  S923  1  0.75152000  0.15152000  0.93940000  1
  S  S924  1  0.64848000  0.04848000  0.81060000  1
  Mo  Mo925  1  0.68766000  0.35454000  0.14602500  1
  Mo  Mo926  1  0.71682000  0.28766000  0.19317500  1
  Mo  Mo927  1  0.75454000  0.31682000  0.10957500  1
  Mo  Mo928  1  0.71234000  0.24546000  0.10397500  1
  Mo  Mo929  1  0.68318000  0.31234000  0.05682500  1
  Mo  Mo930  1  0.64546000  0.28318000  0.14042500  1
  Pb  Pb931  1  0.60000000  0.20000000  0.00000000  1
  S  S932  1  0.65142000  0.32336000  0.21860000  1
  S  S933  1  0.77488000  0.25142000  0.15420000  1
  S  S934  1  0.72336000  0.37488000  0.06427500  1
  S  S935  1  0.74858000  0.27664000  0.03140000  1
  S  S936  1  0.62512000  0.34858000  0.09580000  1
  S  S937  1  0.67664000  0.22512000  0.18572500  1
  S  S938  1  0.75152000  0.35152000  0.18940000  1
  Mo  Mo939  1  0.68766000  0.35454000  0.39602500  1
  Mo  Mo940  1  0.71682000  0.28766000  0.44317500  1
  Mo  Mo941  1  0.75454000  0.31682000  0.35957500  1
  Mo  Mo942  1  0.71234000  0.24546000  0.35397500  1
  Mo  Mo943  1  0.68318000  0.31234000  0.30682500  1
  Mo  Mo944  1  0.64546000  0.28318000  0.39042500  1
  Pb  Pb945  1  0.60000000  0.20000000  0.25000000  1
  S  S946  1  0.65142000  0.32336000  0.46860000  1
  S  S947  1  0.77488000  0.25142000  0.40420000  1
  S  S948  1  0.72336000  0.37488000  0.31427500  1
  S  S949  1  0.74858000  0.27664000  0.28140000  1
  S  S950  1  0.62512000  0.34858000  0.34580000  1
  S  S951  1  0.67664000  0.22512000  0.43572500  1
  S  S952  1  0.75152000  0.35152000  0.43940000  1
  Mo  Mo953  1  0.68766000  0.35454000  0.64602500  1
  Mo  Mo954  1  0.71682000  0.28766000  0.69317500  1
  Mo  Mo955  1  0.75454000  0.31682000  0.60957500  1
  Mo  Mo956  1  0.71234000  0.24546000  0.60397500  1
  Mo  Mo957  1  0.68318000  0.31234000  0.55682500  1
  Mo  Mo958  1  0.64546000  0.28318000  0.64042500  1
  Pb  Pb959  1  0.60000000  0.20000000  0.50000000  1
  S  S960  1  0.65142000  0.32336000  0.71860000  1
  S  S961  1  0.77488000  0.25142000  0.65420000  1
  S  S962  1  0.72336000  0.37488000  0.56427500  1
  S  S963  1  0.74858000  0.27664000  0.53140000  1
  S  S964  1  0.62512000  0.34858000  0.59580000  1
  S  S965  1  0.67664000  0.22512000  0.68572500  1
  S  S966  1  0.75152000  0.35152000  0.68940000  1
  S  S967  1  0.64848000  0.24848000  0.56060000  1
  Mo  Mo968  1  0.68766000  0.35454000  0.89602500  1
  Mo  Mo969  1  0.71682000  0.28766000  0.94317500  1
  Mo  Mo970  1  0.75454000  0.31682000  0.85957500  1
  Mo  Mo971  1  0.71234000  0.24546000  0.85397500  1
  Mo  Mo972  1  0.68318000  0.31234000  0.80682500  1
  Mo  Mo973  1  0.64546000  0.28318000  0.89042500  1
  Pb  Pb974  1  0.60000000  0.20000000  0.75000000  1
  S  S975  1  0.65142000  0.32336000  0.96860000  1
  S  S976  1  0.77488000  0.25142000  0.90420000  1
  S  S977  1  0.72336000  0.37488000  0.81427500  1
  S  S978  1  0.74858000  0.27664000  0.78140000  1
  S  S979  1  0.62512000  0.34858000  0.84580000  1
  S  S980  1  0.67664000  0.22512000  0.93572500  1
  S  S981  1  0.75152000  0.35152000  0.93940000  1
  S  S982  1  0.64848000  0.24848000  0.81060000  1
  Mo  Mo983  1  0.68766000  0.55454000  0.14602500  1
  Mo  Mo984  1  0.71682000  0.48766000  0.19317500  1
  Mo  Mo985  1  0.75454000  0.51682000  0.10957500  1
  Mo  Mo986  1  0.71234000  0.44546000  0.10397500  1
  Mo  Mo987  1  0.68318000  0.51234000  0.05682500  1
  Mo  Mo988  1  0.64546000  0.48318000  0.14042500  1
  Pb  Pb989  1  0.60000000  0.40000000  0.00000000  1
  S  S990  1  0.65142000  0.52336000  0.21860000  1
  S  S991  1  0.77488000  0.45142000  0.15420000  1
  S  S992  1  0.72336000  0.57488000  0.06427500  1
  S  S993  1  0.74858000  0.47664000  0.03140000  1
  S  S994  1  0.62512000  0.54858000  0.09580000  1
  S  S995  1  0.67664000  0.42512000  0.18572500  1
  Mo  Mo996  1  0.68766000  0.55454000  0.39602500  1
  Mo  Mo997  1  0.71682000  0.48766000  0.44317500  1
  Mo  Mo998  1  0.75454000  0.51682000  0.35957500  1
  Mo  Mo999  1  0.71234000  0.44546000  0.35397500  1
  Mo  Mo1000  1  0.68318000  0.51234000  0.30682500  1
  Mo  Mo1001  1  0.64546000  0.48318000  0.39042500  1
  Pb  Pb1002  1  0.60000000  0.40000000  0.25000000  1
  S  S1003  1  0.65142000  0.52336000  0.46860000  1
  S  S1004  1  0.77488000  0.45142000  0.40420000  1
  S  S1005  1  0.72336000  0.57488000  0.31427500  1
  S  S1006  1  0.74858000  0.47664000  0.28140000  1
  S  S1007  1  0.62512000  0.54858000  0.34580000  1
  S  S1008  1  0.67664000  0.42512000  0.43572500  1
  S  S1009  1  0.75152000  0.55152000  0.43940000  1
  Mo  Mo1010  1  0.68766000  0.55454000  0.64602500  1
  Mo  Mo1011  1  0.71682000  0.48766000  0.69317500  1
  Mo  Mo1012  1  0.75454000  0.51682000  0.60957500  1
  Mo  Mo1013  1  0.71234000  0.44546000  0.60397500  1
  Mo  Mo1014  1  0.68318000  0.51234000  0.55682500  1
  Mo  Mo1015  1  0.64546000  0.48318000  0.64042500  1
  Pb  Pb1016  1  0.60000000  0.40000000  0.50000000  1
  S  S1017  1  0.65142000  0.52336000  0.71860000  1
  S  S1018  1  0.77488000  0.45142000  0.65420000  1
  S  S1019  1  0.72336000  0.57488000  0.56427500  1
  S  S1020  1  0.74858000  0.47664000  0.53140000  1
  S  S1021  1  0.62512000  0.54858000  0.59580000  1
  S  S1022  1  0.67664000  0.42512000  0.68572500  1
  Mo  Mo1023  1  0.68766000  0.55454000  0.89602500  1
  Mo  Mo1024  1  0.71682000  0.48766000  0.94317500  1
  Mo  Mo1025  1  0.75454000  0.51682000  0.85957500  1
  Mo  Mo1026  1  0.71234000  0.44546000  0.85397500  1
  Mo  Mo1027  1  0.68318000  0.51234000  0.80682500  1
  Mo  Mo1028  1  0.64546000  0.48318000  0.89042500  1
  Pb  Pb1029  1  0.60000000  0.40000000  0.75000000  1
  S  S1030  1  0.65142000  0.52336000  0.96860000  1
  S  S1031  1  0.77488000  0.45142000  0.90420000  1
  S  S1032  1  0.72336000  0.57488000  0.81427500  1
  S  S1033  1  0.74858000  0.47664000  0.78140000  1
  S  S1034  1  0.62512000  0.54858000  0.84580000  1
  S  S1035  1  0.67664000  0.42512000  0.93572500  1
  S  S1036  1  0.64848000  0.44848000  0.81060000  1
  Mo  Mo1037  1  0.68766000  0.75454000  0.14602500  1
  Mo  Mo1038  1  0.71682000  0.68766000  0.19317500  1
  Mo  Mo1039  1  0.75454000  0.71682000  0.10957500  1
  Mo  Mo1040  1  0.71234000  0.64546000  0.10397500  1
  Mo  Mo1041  1  0.68318000  0.71234000  0.05682500  1
  Mo  Mo1042  1  0.64546000  0.68318000  0.14042500  1
  Pb  Pb1043  1  0.60000000  0.60000000  0.00000000  1
  S  S1044  1  0.65142000  0.72336000  0.21860000  1
  S  S1045  1  0.77488000  0.65142000  0.15420000  1
  S  S1046  1  0.72336000  0.77488000  0.06427500  1
  S  S1047  1  0.74858000  0.67664000  0.03140000  1
  S  S1048  1  0.62512000  0.74858000  0.09580000  1
  S  S1049  1  0.67664000  0.62512000  0.18572500  1
  S  S1050  1  0.75152000  0.75152000  0.18940000  1
  S  S1051  1  0.64848000  0.64848000  0.06060000  1
  Mo  Mo1052  1  0.68766000  0.75454000  0.39602500  1
  Mo  Mo1053  1  0.71682000  0.68766000  0.44317500  1
  Mo  Mo1054  1  0.75454000  0.71682000  0.35957500  1
  Mo  Mo1055  1  0.71234000  0.64546000  0.35397500  1
  Mo  Mo1056  1  0.68318000  0.71234000  0.30682500  1
  Mo  Mo1057  1  0.64546000  0.68318000  0.39042500  1
  Pb  Pb1058  1  0.60000000  0.60000000  0.25000000  1
  S  S1059  1  0.65142000  0.72336000  0.46860000  1
  S  S1060  1  0.77488000  0.65142000  0.40420000  1
  S  S1061  1  0.72336000  0.77488000  0.31427500  1
  S  S1062  1  0.74858000  0.67664000  0.28140000  1
  S  S1063  1  0.62512000  0.74858000  0.34580000  1
  S  S1064  1  0.67664000  0.62512000  0.43572500  1
  S  S1065  1  0.64848000  0.64848000  0.31060000  1
  Mo  Mo1066  1  0.68766000  0.75454000  0.64602500  1
  Mo  Mo1067  1  0.71682000  0.68766000  0.69317500  1
  Mo  Mo1068  1  0.75454000  0.71682000  0.60957500  1
  Mo  Mo1069  1  0.71234000  0.64546000  0.60397500  1
  Mo  Mo1070  1  0.68318000  0.71234000  0.55682500  1
  Mo  Mo1071  1  0.64546000  0.68318000  0.64042500  1
  Pb  Pb1072  1  0.60000000  0.60000000  0.50000000  1
  S  S1073  1  0.65142000  0.72336000  0.71860000  1
  S  S1074  1  0.77488000  0.65142000  0.65420000  1
  S  S1075  1  0.72336000  0.77488000  0.56427500  1
  S  S1076  1  0.74858000  0.67664000  0.53140000  1
  S  S1077  1  0.62512000  0.74858000  0.59580000  1
  S  S1078  1  0.67664000  0.62512000  0.68572500  1
  S  S1079  1  0.64848000  0.64848000  0.56060000  1
  Mo  Mo1080  1  0.68766000  0.75454000  0.89602500  1
  Mo  Mo1081  1  0.71682000  0.68766000  0.94317500  1
  Mo  Mo1082  1  0.75454000  0.71682000  0.85957500  1
  Mo  Mo1083  1  0.71234000  0.64546000  0.85397500  1
  Mo  Mo1084  1  0.68318000  0.71234000  0.80682500  1
  Mo  Mo1085  1  0.64546000  0.68318000  0.89042500  1
  Pb  Pb1086  1  0.60000000  0.60000000  0.75000000  1
  S  S1087  1  0.65142000  0.72336000  0.96860000  1
  S  S1088  1  0.77488000  0.65142000  0.90420000  1
  S  S1089  1  0.72336000  0.77488000  0.81427500  1
  S  S1090  1  0.74858000  0.67664000  0.78140000  1
  S  S1091  1  0.62512000  0.74858000  0.84580000  1
  S  S1092  1  0.67664000  0.62512000  0.93572500  1
  S  S1093  1  0.75152000  0.75152000  0.93940000  1
  Mo  Mo1094  1  0.68766000  0.95454000  0.14602500  1
  Mo  Mo1095  1  0.71682000  0.88766000  0.19317500  1
  Mo  Mo1096  1  0.75454000  0.91682000  0.10957500  1
  Mo  Mo1097  1  0.71234000  0.84546000  0.10397500  1
  Mo  Mo1098  1  0.68318000  0.91234000  0.05682500  1
  Mo  Mo1099  1  0.64546000  0.88318000  0.14042500  1
  Pb  Pb1100  1  0.60000000  0.80000000  0.00000000  1
  S  S1101  1  0.65142000  0.92336000  0.21860000  1
  S  S1102  1  0.77488000  0.85142000  0.15420000  1
  S  S1103  1  0.72336000  0.97488000  0.06427500  1
  S  S1104  1  0.74858000  0.87664000  0.03140000  1
  S  S1105  1  0.62512000  0.94858000  0.09580000  1
  S  S1106  1  0.67664000  0.82512000  0.18572500  1
  S  S1107  1  0.75152000  0.95152000  0.18940000  1
  S  S1108  1  0.64848000  0.84848000  0.06060000  1
  Mo  Mo1109  1  0.68766000  0.95454000  0.39602500  1
  Mo  Mo1110  1  0.71682000  0.88766000  0.44317500  1
  Mo  Mo1111  1  0.75454000  0.91682000  0.35957500  1
  Mo  Mo1112  1  0.71234000  0.84546000  0.35397500  1
  Mo  Mo1113  1  0.68318000  0.91234000  0.30682500  1
  Mo  Mo1114  1  0.64546000  0.88318000  0.39042500  1
  Pb  Pb1115  1  0.60000000  0.80000000  0.25000000  1
  S  S1116  1  0.65142000  0.92336000  0.46860000  1
  S  S1117  1  0.77488000  0.85142000  0.40420000  1
  S  S1118  1  0.72336000  0.97488000  0.31427500  1
  S  S1119  1  0.74858000  0.87664000  0.28140000  1
  S  S1120  1  0.62512000  0.94858000  0.34580000  1
  S  S1121  1  0.67664000  0.82512000  0.43572500  1
  S  S1122  1  0.75152000  0.95152000  0.43940000  1
  S  S1123  1  0.64848000  0.84848000  0.31060000  1
  Mo  Mo1124  1  0.68766000  0.95454000  0.64602500  1
  Mo  Mo1125  1  0.71682000  0.88766000  0.69317500  1
  Mo  Mo1126  1  0.75454000  0.91682000  0.60957500  1
  Mo  Mo1127  1  0.71234000  0.84546000  0.60397500  1
  Mo  Mo1128  1  0.68318000  0.91234000  0.55682500  1
  Mo  Mo1129  1  0.64546000  0.88318000  0.64042500  1
  S  S1130  1  0.65142000  0.92336000  0.71860000  1
  S  S1131  1  0.77488000  0.85142000  0.65420000  1
  S  S1132  1  0.72336000  0.97488000  0.56427500  1
  S  S1133  1  0.74858000  0.87664000  0.53140000  1
  S  S1134  1  0.62512000  0.94858000  0.59580000  1
  S  S1135  1  0.67664000  0.82512000  0.68572500  1
  S  S1136  1  0.75152000  0.95152000  0.68940000  1
  S  S1137  1  0.64848000  0.84848000  0.56060000  1
  Mo  Mo1138  1  0.68766000  0.95454000  0.89602500  1
  Mo  Mo1139  1  0.71682000  0.88766000  0.94317500  1
  Mo  Mo1140  1  0.75454000  0.91682000  0.85957500  1
  Mo  Mo1141  1  0.71234000  0.84546000  0.85397500  1
  Mo  Mo1142  1  0.68318000  0.91234000  0.80682500  1
  Mo  Mo1143  1  0.64546000  0.88318000  0.89042500  1
  Pb  Pb1144  1  0.60000000  0.80000000  0.75000000  1
  S  S1145  1  0.65142000  0.92336000  0.96860000  1
  S  S1146  1  0.77488000  0.85142000  0.90420000  1
  S  S1147  1  0.72336000  0.97488000  0.81427500  1
  S  S1148  1  0.74858000  0.87664000  0.78140000  1
  S  S1149  1  0.62512000  0.94858000  0.84580000  1
  S  S1150  1  0.67664000  0.82512000  0.93572500  1
  S  S1151  1  0.75152000  0.95152000  0.93940000  1
  S  S1152  1  0.64848000  0.84848000  0.81060000  1
  Mo  Mo1153  1  0.88766000  0.15454000  0.14602500  1
  Mo  Mo1154  1  0.91682000  0.08766000  0.19317500  1
  Mo  Mo1155  1  0.95454000  0.11682000  0.10957500  1
  Mo  Mo1156  1  0.91234000  0.04546000  0.10397500  1
  Mo  Mo1157  1  0.88318000  0.11234000  0.05682500  1
  Mo  Mo1158  1  0.84546000  0.08318000  0.14042500  1
  Pb  Pb1159  1  0.80000000  0.00000000  0.00000000  1
  S  S1160  1  0.85142000  0.12336000  0.21860000  1
  S  S1161  1  0.97488000  0.05142000  0.15420000  1
  S  S1162  1  0.92336000  0.17488000  0.06427500  1
  S  S1163  1  0.94858000  0.07664000  0.03140000  1
  S  S1164  1  0.82512000  0.14858000  0.09580000  1
  S  S1165  1  0.87664000  0.02512000  0.18572500  1
  S  S1166  1  0.95152000  0.15152000  0.18940000  1
  Mo  Mo1167  1  0.88766000  0.15454000  0.39602500  1
  Mo  Mo1168  1  0.91682000  0.08766000  0.44317500  1
  Mo  Mo1169  1  0.95454000  0.11682000  0.35957500  1
  Mo  Mo1170  1  0.91234000  0.04546000  0.35397500  1
  Mo  Mo1171  1  0.88318000  0.11234000  0.30682500  1
  Mo  Mo1172  1  0.84546000  0.08318000  0.39042500  1
  S  S1173  1  0.85142000  0.12336000  0.46860000  1
  S  S1174  1  0.97488000  0.05142000  0.40420000  1
  S  S1175  1  0.92336000  0.17488000  0.31427500  1
  S  S1176  1  0.94858000  0.07664000  0.28140000  1
  S  S1177  1  0.82512000  0.14858000  0.34580000  1
  S  S1178  1  0.87664000  0.02512000  0.43572500  1
  S  S1179  1  0.95152000  0.15152000  0.43940000  1
  S  S1180  1  0.84848000  0.04848000  0.31060000  1
  Mo  Mo1181  1  0.88766000  0.15454000  0.64602500  1
  Mo  Mo1182  1  0.91682000  0.08766000  0.69317500  1
  Mo  Mo1183  1  0.95454000  0.11682000  0.60957500  1
  Mo  Mo1184  1  0.91234000  0.04546000  0.60397500  1
  Mo  Mo1185  1  0.88318000  0.11234000  0.55682500  1
  Mo  Mo1186  1  0.84546000  0.08318000  0.64042500  1
  Pb  Pb1187  1  0.80000000  0.00000000  0.50000000  1
  S  S1188  1  0.85142000  0.12336000  0.71860000  1
  S  S1189  1  0.97488000  0.05142000  0.65420000  1
  S  S1190  1  0.92336000  0.17488000  0.56427500  1
  S  S1191  1  0.94858000  0.07664000  0.53140000  1
  S  S1192  1  0.82512000  0.14858000  0.59580000  1
  S  S1193  1  0.87664000  0.02512000  0.68572500  1
  S  S1194  1  0.95152000  0.15152000  0.68940000  1
  Mo  Mo1195  1  0.88766000  0.15454000  0.89602500  1
  Mo  Mo1196  1  0.91682000  0.08766000  0.94317500  1
  Mo  Mo1197  1  0.95454000  0.11682000  0.85957500  1
  Mo  Mo1198  1  0.91234000  0.04546000  0.85397500  1
  Mo  Mo1199  1  0.88318000  0.11234000  0.80682500  1
  Mo  Mo1200  1  0.84546000  0.08318000  0.89042500  1
  Pb  Pb1201  1  0.80000000  0.00000000  0.75000000  1
  S  S1202  1  0.85142000  0.12336000  0.96860000  1
  S  S1203  1  0.97488000  0.05142000  0.90420000  1
  S  S1204  1  0.92336000  0.17488000  0.81427500  1
  S  S1205  1  0.94858000  0.07664000  0.78140000  1
  S  S1206  1  0.82512000  0.14858000  0.84580000  1
  S  S1207  1  0.87664000  0.02512000  0.93572500  1
  S  S1208  1  0.84848000  0.04848000  0.81060000  1
  Mo  Mo1209  1  0.88766000  0.35454000  0.14602500  1
  Mo  Mo1210  1  0.91682000  0.28766000  0.19317500  1
  Mo  Mo1211  1  0.95454000  0.31682000  0.10957500  1
  Mo  Mo1212  1  0.91234000  0.24546000  0.10397500  1
  Mo  Mo1213  1  0.88318000  0.31234000  0.05682500  1
  Mo  Mo1214  1  0.84546000  0.28318000  0.14042500  1
  Pb  Pb1215  1  0.80000000  0.20000000  0.00000000  1
  S  S1216  1  0.85142000  0.32336000  0.21860000  1
  S  S1217  1  0.97488000  0.25142000  0.15420000  1
  S  S1218  1  0.92336000  0.37488000  0.06427500  1
  S  S1219  1  0.94858000  0.27664000  0.03140000  1
  S  S1220  1  0.82512000  0.34858000  0.09580000  1
  S  S1221  1  0.87664000  0.22512000  0.18572500  1
  S  S1222  1  0.95152000  0.35152000  0.18940000  1
  Mo  Mo1223  1  0.88766000  0.35454000  0.39602500  1
  Mo  Mo1224  1  0.91682000  0.28766000  0.44317500  1
  Mo  Mo1225  1  0.95454000  0.31682000  0.35957500  1
  Mo  Mo1226  1  0.91234000  0.24546000  0.35397500  1
  Mo  Mo1227  1  0.88318000  0.31234000  0.30682500  1
  Mo  Mo1228  1  0.84546000  0.28318000  0.39042500  1
  Pb  Pb1229  1  0.80000000  0.20000000  0.25000000  1
  S  S1230  1  0.85142000  0.32336000  0.46860000  1
  S  S1231  1  0.97488000  0.25142000  0.40420000  1
  S  S1232  1  0.92336000  0.37488000  0.31427500  1
  S  S1233  1  0.94858000  0.27664000  0.28140000  1
  S  S1234  1  0.82512000  0.34858000  0.34580000  1
  S  S1235  1  0.87664000  0.22512000  0.43572500  1
  S  S1236  1  0.95152000  0.35152000  0.43940000  1
  S  S1237  1  0.84848000  0.24848000  0.31060000  1
  Mo  Mo1238  1  0.88766000  0.35454000  0.64602500  1
  Mo  Mo1239  1  0.91682000  0.28766000  0.69317500  1
  Mo  Mo1240  1  0.95454000  0.31682000  0.60957500  1
  Mo  Mo1241  1  0.91234000  0.24546000  0.60397500  1
  Mo  Mo1242  1  0.88318000  0.31234000  0.55682500  1
  Mo  Mo1243  1  0.84546000  0.28318000  0.64042500  1
  Pb  Pb1244  1  0.80000000  0.20000000  0.50000000  1
  S  S1245  1  0.85142000  0.32336000  0.71860000  1
  S  S1246  1  0.97488000  0.25142000  0.65420000  1
  S  S1247  1  0.92336000  0.37488000  0.56427500  1
  S  S1248  1  0.94858000  0.27664000  0.53140000  1
  S  S1249  1  0.82512000  0.34858000  0.59580000  1
  S  S1250  1  0.87664000  0.22512000  0.68572500  1
  S  S1251  1  0.95152000  0.35152000  0.68940000  1
  S  S1252  1  0.84848000  0.24848000  0.56060000  1
  Mo  Mo1253  1  0.88766000  0.35454000  0.89602500  1
  Mo  Mo1254  1  0.91682000  0.28766000  0.94317500  1
  Mo  Mo1255  1  0.95454000  0.31682000  0.85957500  1
  Mo  Mo1256  1  0.91234000  0.24546000  0.85397500  1
  Mo  Mo1257  1  0.88318000  0.31234000  0.80682500  1
  Mo  Mo1258  1  0.84546000  0.28318000  0.89042500  1
  Pb  Pb1259  1  0.80000000  0.20000000  0.75000000  1
  S  S1260  1  0.85142000  0.32336000  0.96860000  1
  S  S1261  1  0.97488000  0.25142000  0.90420000  1
  S  S1262  1  0.92336000  0.37488000  0.81427500  1
  S  S1263  1  0.94858000  0.27664000  0.78140000  1
  S  S1264  1  0.82512000  0.34858000  0.84580000  1
  S  S1265  1  0.87664000  0.22512000  0.93572500  1
  S  S1266  1  0.95152000  0.35152000  0.93940000  1
  S  S1267  1  0.84848000  0.24848000  0.81060000  1
  Mo  Mo1268  1  0.88766000  0.55454000  0.14602500  1
  Mo  Mo1269  1  0.91682000  0.48766000  0.19317500  1
  Mo  Mo1270  1  0.95454000  0.51682000  0.10957500  1
  Mo  Mo1271  1  0.91234000  0.44546000  0.10397500  1
  Mo  Mo1272  1  0.88318000  0.51234000  0.05682500  1
  Mo  Mo1273  1  0.84546000  0.48318000  0.14042500  1
  Pb  Pb1274  1  0.80000000  0.40000000  0.00000000  1
  S  S1275  1  0.85142000  0.52336000  0.21860000  1
  S  S1276  1  0.97488000  0.45142000  0.15420000  1
  S  S1277  1  0.92336000  0.57488000  0.06427500  1
  S  S1278  1  0.94858000  0.47664000  0.03140000  1
  S  S1279  1  0.82512000  0.54858000  0.09580000  1
  S  S1280  1  0.87664000  0.42512000  0.18572500  1
  S  S1281  1  0.84848000  0.44848000  0.06060000  1
  Mo  Mo1282  1  0.88766000  0.55454000  0.39602500  1
  Mo  Mo1283  1  0.91682000  0.48766000  0.44317500  1
  Mo  Mo1284  1  0.95454000  0.51682000  0.35957500  1
  Mo  Mo1285  1  0.91234000  0.44546000  0.35397500  1
  Mo  Mo1286  1  0.88318000  0.51234000  0.30682500  1
  Mo  Mo1287  1  0.84546000  0.48318000  0.39042500  1
  Pb  Pb1288  1  0.80000000  0.40000000  0.25000000  1
  S  S1289  1  0.85142000  0.52336000  0.46860000  1
  S  S1290  1  0.97488000  0.45142000  0.40420000  1
  S  S1291  1  0.92336000  0.57488000  0.31427500  1
  S  S1292  1  0.94858000  0.47664000  0.28140000  1
  S  S1293  1  0.82512000  0.54858000  0.34580000  1
  S  S1294  1  0.87664000  0.42512000  0.43572500  1
  S  S1295  1  0.84848000  0.44848000  0.31060000  1
  Mo  Mo1296  1  0.88766000  0.55454000  0.64602500  1
  Mo  Mo1297  1  0.91682000  0.48766000  0.69317500  1
  Mo  Mo1298  1  0.95454000  0.51682000  0.60957500  1
  Mo  Mo1299  1  0.91234000  0.44546000  0.60397500  1
  Mo  Mo1300  1  0.88318000  0.51234000  0.55682500  1
  Mo  Mo1301  1  0.84546000  0.48318000  0.64042500  1
  Pb  Pb1302  1  0.80000000  0.40000000  0.50000000  1
  S  S1303  1  0.85142000  0.52336000  0.71860000  1
  S  S1304  1  0.97488000  0.45142000  0.65420000  1
  S  S1305  1  0.92336000  0.57488000  0.56427500  1
  S  S1306  1  0.94858000  0.47664000  0.53140000  1
  S  S1307  1  0.82512000  0.54858000  0.59580000  1
  S  S1308  1  0.87664000  0.42512000  0.68572500  1
  S  S1309  1  0.95152000  0.55152000  0.68940000  1
  S  S1310  1  0.84848000  0.44848000  0.56060000  1
  Mo  Mo1311  1  0.88766000  0.55454000  0.89602500  1
  Mo  Mo1312  1  0.91682000  0.48766000  0.94317500  1
  Mo  Mo1313  1  0.95454000  0.51682000  0.85957500  1
  Mo  Mo1314  1  0.91234000  0.44546000  0.85397500  1
  Mo  Mo1315  1  0.88318000  0.51234000  0.80682500  1
  Mo  Mo1316  1  0.84546000  0.48318000  0.89042500  1
  Pb  Pb1317  1  0.80000000  0.40000000  0.75000000  1
  S  S1318  1  0.85142000  0.52336000  0.96860000  1
  S  S1319  1  0.97488000  0.45142000  0.90420000  1
  S  S1320  1  0.92336000  0.57488000  0.81427500  1
  S  S1321  1  0.94858000  0.47664000  0.78140000  1
  S  S1322  1  0.82512000  0.54858000  0.84580000  1
  S  S1323  1  0.87664000  0.42512000  0.93572500  1
  S  S1324  1  0.95152000  0.55152000  0.93940000  1
  Mo  Mo1325  1  0.88766000  0.75454000  0.14602500  1
  Mo  Mo1326  1  0.91682000  0.68766000  0.19317500  1
  Mo  Mo1327  1  0.95454000  0.71682000  0.10957500  1
  Mo  Mo1328  1  0.91234000  0.64546000  0.10397500  1
  Mo  Mo1329  1  0.88318000  0.71234000  0.05682500  1
  Mo  Mo1330  1  0.84546000  0.68318000  0.14042500  1
  Pb  Pb1331  1  0.80000000  0.60000000  0.00000000  1
  S  S1332  1  0.85142000  0.72336000  0.21860000  1
  S  S1333  1  0.97488000  0.65142000  0.15420000  1
  S  S1334  1  0.92336000  0.77488000  0.06427500  1
  S  S1335  1  0.94858000  0.67664000  0.03140000  1
  S  S1336  1  0.82512000  0.74858000  0.09580000  1
  S  S1337  1  0.87664000  0.62512000  0.18572500  1
  S  S1338  1  0.84848000  0.64848000  0.06060000  1
  Mo  Mo1339  1  0.88766000  0.75454000  0.39602500  1
  Mo  Mo1340  1  0.91682000  0.68766000  0.44317500  1
  Mo  Mo1341  1  0.95454000  0.71682000  0.35957500  1
  Mo  Mo1342  1  0.91234000  0.64546000  0.35397500  1
  Mo  Mo1343  1  0.88318000  0.71234000  0.30682500  1
  Mo  Mo1344  1  0.84546000  0.68318000  0.39042500  1
  Pb  Pb1345  1  0.80000000  0.60000000  0.25000000  1
  S  S1346  1  0.85142000  0.72336000  0.46860000  1
  S  S1347  1  0.97488000  0.65142000  0.40420000  1
  S  S1348  1  0.92336000  0.77488000  0.31427500  1
  S  S1349  1  0.94858000  0.67664000  0.28140000  1
  S  S1350  1  0.82512000  0.74858000  0.34580000  1
  S  S1351  1  0.87664000  0.62512000  0.43572500  1
  S  S1352  1  0.95152000  0.75152000  0.43940000  1
  S  S1353  1  0.84848000  0.64848000  0.31060000  1
  Mo  Mo1354  1  0.88766000  0.75454000  0.64602500  1
  Mo  Mo1355  1  0.91682000  0.68766000  0.69317500  1
  Mo  Mo1356  1  0.95454000  0.71682000  0.60957500  1
  Mo  Mo1357  1  0.91234000  0.64546000  0.60397500  1
  Mo  Mo1358  1  0.88318000  0.71234000  0.55682500  1
  Mo  Mo1359  1  0.84546000  0.68318000  0.64042500  1
  Pb  Pb1360  1  0.80000000  0.60000000  0.50000000  1
  S  S1361  1  0.85142000  0.72336000  0.71860000  1
  S  S1362  1  0.97488000  0.65142000  0.65420000  1
  S  S1363  1  0.92336000  0.77488000  0.56427500  1
  S  S1364  1  0.94858000  0.67664000  0.53140000  1
  S  S1365  1  0.82512000  0.74858000  0.59580000  1
  S  S1366  1  0.87664000  0.62512000  0.68572500  1
  S  S1367  1  0.95152000  0.75152000  0.68940000  1
  S  S1368  1  0.84848000  0.64848000  0.56060000  1
  Mo  Mo1369  1  0.88766000  0.75454000  0.89602500  1
  Mo  Mo1370  1  0.91682000  0.68766000  0.94317500  1
  Mo  Mo1371  1  0.95454000  0.71682000  0.85957500  1
  Mo  Mo1372  1  0.91234000  0.64546000  0.85397500  1
  Mo  Mo1373  1  0.88318000  0.71234000  0.80682500  1
  Mo  Mo1374  1  0.84546000  0.68318000  0.89042500  1
  Pb  Pb1375  1  0.80000000  0.60000000  0.75000000  1
  S  S1376  1  0.85142000  0.72336000  0.96860000  1
  S  S1377  1  0.97488000  0.65142000  0.90420000  1
  S  S1378  1  0.92336000  0.77488000  0.81427500  1
  S  S1379  1  0.94858000  0.67664000  0.78140000  1
  S  S1380  1  0.82512000  0.74858000  0.84580000  1
  S  S1381  1  0.87664000  0.62512000  0.93572500  1
  S  S1382  1  0.95152000  0.75152000  0.93940000  1
  S  S1383  1  0.84848000  0.64848000  0.81060000  1
  Mo  Mo1384  1  0.88766000  0.95454000  0.14602500  1
  Mo  Mo1385  1  0.91682000  0.88766000  0.19317500  1
  Mo  Mo1386  1  0.95454000  0.91682000  0.10957500  1
  Mo  Mo1387  1  0.91234000  0.84546000  0.10397500  1
  Mo  Mo1388  1  0.88318000  0.91234000  0.05682500  1
  Mo  Mo1389  1  0.84546000  0.88318000  0.14042500  1
  Pb  Pb1390  1  0.80000000  0.80000000  0.00000000  1
  S  S1391  1  0.85142000  0.92336000  0.21860000  1
  S  S1392  1  0.97488000  0.85142000  0.15420000  1
  S  S1393  1  0.92336000  0.97488000  0.06427500  1
  S  S1394  1  0.94858000  0.87664000  0.03140000  1
  S  S1395  1  0.82512000  0.94858000  0.09580000  1
  S  S1396  1  0.87664000  0.82512000  0.18572500  1
  S  S1397  1  0.95152000  0.95152000  0.18940000  1
  Mo  Mo1398  1  0.88766000  0.95454000  0.39602500  1
  Mo  Mo1399  1  0.91682000  0.88766000  0.44317500  1
  Mo  Mo1400  1  0.95454000  0.91682000  0.35957500  1
  Mo  Mo1401  1  0.91234000  0.84546000  0.35397500  1
  Mo  Mo1402  1  0.88318000  0.91234000  0.30682500  1
  Mo  Mo1403  1  0.84546000  0.88318000  0.39042500  1
  Pb  Pb1404  1  0.80000000  0.80000000  0.25000000  1
  S  S1405  1  0.85142000  0.92336000  0.46860000  1
  S  S1406  1  0.97488000  0.85142000  0.40420000  1
  S  S1407  1  0.92336000  0.97488000  0.31427500  1
  S  S1408  1  0.94858000  0.87664000  0.28140000  1
  S  S1409  1  0.82512000  0.94858000  0.34580000  1
  S  S1410  1  0.87664000  0.82512000  0.43572500  1
  S  S1411  1  0.95152000  0.95152000  0.43940000  1
  S  S1412  1  0.84848000  0.84848000  0.31060000  1
  Mo  Mo1413  1  0.88766000  0.95454000  0.64602500  1
  Mo  Mo1414  1  0.91682000  0.88766000  0.69317500  1
  Mo  Mo1415  1  0.95454000  0.91682000  0.60957500  1
  Mo  Mo1416  1  0.91234000  0.84546000  0.60397500  1
  Mo  Mo1417  1  0.88318000  0.91234000  0.55682500  1
  Mo  Mo1418  1  0.84546000  0.88318000  0.64042500  1
  Pb  Pb1419  1  0.80000000  0.80000000  0.50000000  1
  S  S1420  1  0.85142000  0.92336000  0.71860000  1
  S  S1421  1  0.97488000  0.85142000  0.65420000  1
  S  S1422  1  0.92336000  0.97488000  0.56427500  1
  S  S1423  1  0.94858000  0.87664000  0.53140000  1
  S  S1424  1  0.82512000  0.94858000  0.59580000  1
  S  S1425  1  0.87664000  0.82512000  0.68572500  1
  S  S1426  1  0.84848000  0.84848000  0.56060000  1
  Mo  Mo1427  1  0.88766000  0.95454000  0.89602500  1
  Mo  Mo1428  1  0.91682000  0.88766000  0.94317500  1
  Mo  Mo1429  1  0.95454000  0.91682000  0.85957500  1
  Mo  Mo1430  1  0.91234000  0.84546000  0.85397500  1
  Mo  Mo1431  1  0.88318000  0.91234000  0.80682500  1
  Mo  Mo1432  1  0.84546000  0.88318000  0.89042500  1
  Pb  Pb1433  1  0.80000000  0.80000000  0.75000000  1
  S  S1434  1  0.85142000  0.92336000  0.96860000  1
  S  S1435  1  0.97488000  0.85142000  0.90420000  1
  S  S1436  1  0.92336000  0.97488000  0.81427500  1
  S  S1437  1  0.94858000  0.87664000  0.78140000  1
  S  S1438  1  0.82512000  0.94858000  0.84580000  1
  S  S1439  1  0.87664000  0.82512000  0.93572500  1
  S  S1440  1  0.95152000  0.95152000  0.93940000  1
  S  S1441  1  0.84848000  0.84848000  0.81060000  1
